$DATA1 SOURCE='HSPICE' VERSION='P-2019.06-SP1-1 win64' PARAM_COUNT=0
.TITLE '***amplificador de potencia valvulado'
 maxslew          minslew          slew             temper          
 alter#          
   16.65368321      -0.41010274     1.2509484e+07     25.00000000   
2               
