Circuit: * C:\Users\Public\Documents\Altium\Gagabiro\EL84\POWER_AMP_IC_rework_el84_ac.asc

Warning: Multiple definitions of model "2scr375p" Type: BJT
Warning: Multiple definitions of model "bc857b" Type: BJT
Warning: Multiple definitions of model "bc847c" Type: BJT
Warning: Multiple definitions of model "bc847b" Type: BJT
Direct Newton iteration for .op point succeeded.

f20hz: v(out)=(28.7146dB,-146.6°) at 20
f30hz: v(out)=(28.7146dB,-146.6°) at 20
f40hz: v(out)=(28.7146dB,-146.6°) at 20
f50hz: v(out)=(29.2346dB,-166.643°) at 50.05
f70hz: v(out)=(29.2789dB,-170.497°) at 70
f100hz: v(out)=(29.3022dB,-173.419°) at 100
f200hz: v(out)=(29.3187dB,-176.913°) at 200
f500hz: v(out)=(29.3229dB,-179.335°) at 500
f700hz: v(out)=(29.3229dB,-179.99°) at 700
f1000hz: v(out)=(29.3222dB,179.316°) at 1000
f2000hz: v(out)=(29.3168dB,177.625°) at 2000
f2122hz: v(out)=(29.3159dB,177.441°) at 2122
f5000hz: v(out)=(29.2784dB,173.376°) at 5000
f7000hz: v(out)=(29.2348dB,170.661°) at 7000
f10000hz: v(out)=(29.1437dB,166.67°) at 10000
f20000hz: v(out)=(28.6426dB,154.12°) at 20000


Date: Thu Apr 17 13:59:09 2025
Total elapsed time: 0.095 seconds.

tnom = 27
temp = 27
method = trap
totiter = 14
traniter = 0
tranpoints = 0
accept = 0
rejected = 0
matrix size = 67
fillins = 71
solver = Normal
Matrix Compiler1:     553 opcodes
Matrix Compiler2: 7.23 KB object code size
