 ****** HSPICE -- P-2019.06-SP1-1 win64 (Sep 27 2019) ******                    
  Copyright (c) 1986 - 2021 by Synopsys, Inc. All Rights Reserved.              
  This software and the associated documentation are proprietary
  to Synopsys, Inc. This software may only be used in accordance
  with the terms and conditions of a written license agreement with
  Synopsys, Inc. All other use, reproduction, or distribution of
  this software is strictly prohibited.
  Input File: circuito.sp                                                       
  Command line options: C:\synopsys\Hspice_P-2019.06-SP1-1\WIN64\hspice.com -i circuito.sp -o C:\Program Files\Polyspace\R2020a\cirop\Circuits\Valvulado\Power_Amp_01\circuito.lis
  Start time: Sat Jul 24 13:25:35 2021
  lic:  
  lic: FLEXlm: SDK_12.3 
  lic: USER:   Mara                 HOSTNAME: LAPTOP-NP99354M 
  lic: HOSTID: "5ccd5b11e8c8"       PID:      16596 
  lic: Using FLEXlm license file: 
  lic: 27000@LAPTOP-NP99354M 
  lic: Checkout 1 hspice 
  lic: License/Maintenance for hspice will expire on 30-dec-2030/2020.12 
  lic: 1(in_use)/99(total) FLOATING license(s) on SERVER 27000@LAPTOP-NP99354M 
  lic:   
  **warning** (circuito.sp:121) Inductance for the inductor l1 >= 0.1 henry, please verify it.
  **warning** For .option genk=1, 0 implicit mutual inductors are generated!

 *****************************************************************
 ******  option summary
 ******
 runlvl  = 1         bypass  = 2.0000000000  
  Opening plot unit= 79
 file=C:\Program Files\Polyspace\R2020a\cirop\Circuits\Valvulado\Power_Amp_01\circuito.pa0

FFT analysis is detected and FFT_ACCURATE is turned on automatically to improve accuracy. 
To disable FFT_ACCURATE, set .OPTION FFT_ACCURATE=0.
1****** HSPICE -- P-2019.06-SP1-1 win64 (Sep 27 2019) ******                    
 ******  
 ***amplificador de potencia valvulado

 ****** operating point information tnom=  25.000 temp=  25.000 ******
 ****** operating point status is all       simulation time is     0.           
    node    =voltage            node    =voltage

 +0:n001    = 300.0000000000  0:n002    = 420.0000000000 
 +0:n003    = 420.0000000000  0:n004    = 200.5117145884 
 +0:n005    = 191.2072816889  0:n006    = -36.9997718602 
 +0:n007    = 191.2072816889  0:n009    = 201.4687474898 
 +0:n010    = 2.215978584e-04 0:n011    = 2.215978584e-04
 +0:n012    = -37.0000000000  0:n013    = 420.0000000000 
 +0:n014    =   7.2632161345  0:n015    = 200.5442552579 
 +0:n016    = 420.0000000000  0:n017    = 199.8065541161 
 +0:n018    = -36.9997718602  0:n019    = -10.3654893531 
 +0:n020    = 200.5117135875  0:n021    = -11.0730250569 
 +0:n022    = 420.0000000000  0:n023    =   0.           
 +0:n024    = 1.006552578e-06 0:n025    = -20.0000000000 
 +0:n026    =   6.5525811317  0:n027    =   0.4775009700 
 +0:out     =   0.            1:5       = 2.236123843e-04
 +1:7       =   2.2787795373  2:5       = 2.236123843e-04
 +2:7       =   2.2787795373  3:5       = 200.5117165903 
 +3:7       =   3.6917832713  4:5       = 3.019657734e-06
 +4:7       =   3.1695843185  5:5       = -36.9997708232 
 +5:7       =   5.4679744349  6:5       = -36.9997708232 
 +6:7       =   5.4679744349 


 **** voltage sources

 subckt                                                                      
 element        0:v1             0:v2             0:v3             0:v4      
  volts    -37.0000000000   420.0000000000   -20.0000000000   300.0000000000 
  current  2.073997970e-09 -9.290933000e-02  9.931707062e-03 -1.914915295e-02
  power    7.673792488e-08   39.0219185985     0.1986341412     5.7447458837 

 subckt                   
 element        0:v5      
  volts      0.           
  current  1.006552578e-09
  power      0.           

     total voltage source power dissipation=   44.9652987002  watts



 **** resistors

 subckt                                                                      
 element        0:r1             0:r2             0:r3             0:r4      
  r value  900.0000000000   7.500000000e+05  2.500000000e+05  2.200000000e+05
  v drop    -8.9269749431    -9.6345106469   -10.3654893531  -2.215978584e-04
  current -9.918861048e-03 -1.284601420e-05 -4.146195741e-05 -1.007262993e-09
  power    8.854542404e-02  1.237650605e-04  4.297734781e-04  2.232073219e-13

 subckt                                                                      
 element        0:r5             0:r6             0:r7             0:r8      
  r value  2.200000000e+05  2.200000000e+04  2.200000000e+04  2.200000000e+05
  v drop  -2.215978584e-04 -108.7927183111  -108.7927183111  -2.281397767e-04
  current -1.007262993e-09 -4.945123560e-03 -4.945123560e-03 -1.036998985e-09
  power    2.232073219e-13    0.5379934344     0.5379934344   2.365807168e-13

 subckt                                                                      
 element        0:r9             0:r10            0:r11            0:r12     
  r value  2.200000000e+05  1.000000000e+03  4.700000000e+05  1.200000000e+05
  v drop   2.281397767e-04 -1.006552578e-06    0.            -199.8065541161 
  current  1.036998985e-09 -1.006552578e-09    0.            -1.665054618e-03
  power    2.365807168e-13  1.013148093e-15    0.               0.3326888256 

 subckt                                                                      
 element        0:r13            0:r14            0:r15            0:r16     
  r value  100.0000000000     8.0000000000   1.000000000e+03  800.0000000000 
  v drop    -0.9244922319     0.            -1.000940330e-06    6.0750801617 
  current -9.244922319e-03    0.            -1.000940330e-09  7.593850202e-03
  power    8.546858868e-03    0.             1.001881544e-15  4.613324871e-02

 subckt                                     xu1              xu1             
 element        0:r17            0:r18            1:re1            1:rcp     
  r value  3.300000000e+04   63.0000000000   1.000000000e+09  1.000000000e+09
  v drop     0.4775009700     0.4775009700     2.2787795373   183.9440655545 
  current  1.446972636e-05  7.579380476e-03  2.278779537e-09  1.839440656e-07
  power    6.909308373e-06  3.619161529e-03  5.192836180e-09  3.383541925e-05

 subckt   xu1              xu2              xu2              xu2             
 element        1:r1             2:re1            2:rcp            2:r1      
  r value  2.000000000e+03  1.000000000e+09  1.000000000e+09  2.000000000e+03
  v drop  -2.014525985e-06    2.2787795373   183.9440655545  -2.014525985e-06
  current -1.007262993e-09  2.278779537e-09  1.839440656e-07 -1.007262993e-09
  power    2.029157472e-15  5.192836180e-09  3.383541925e-05  2.029157472e-15

 subckt   xu3              xu3              xu3              xu4             
 element        3:re1            3:rcp            3:r1             4:re1     
  r value  1.000000000e+09  1.000000000e+09  2.000000000e+03  1.000000000e+09
  v drop     3.6917832713    98.5312525102  -2.001880603e-06    3.1695843185 
  current  3.691783271e-09  9.853125251e-08 -1.000940301e-09  3.169584319e-09
  power    1.362926372e-08  9.708407721e-06  2.003762974e-15  1.004626475e-08

 subckt   xu4              xu4              xu5              xu5             
 element        4:rcp            4:r1             5:re1            5:rcp     
  r value  1.000000000e+09  2.000000000e+03  1.000000000e+09  1.000000000e+09
  v drop   193.9591324558  -2.013105156e-06    5.4679744349   420.0000000000 
  current  1.939591325e-07 -1.006552578e-09  5.467974435e-09  4.200000000e-07
  power    3.762014506e-05  2.026296185e-15  2.989874442e-08  1.764000000e-04

 subckt   xu5              xu6              xu6              xu6             
 element        5:r1             6:re1            6:rcp            6:r1      
  r value  1.000000000e+03  1.000000000e+09  1.000000000e+09  1.000000000e+03
  v drop  -1.036998988e-06    5.4679744349   420.0000000000  -1.036998988e-06
  current -1.036998988e-09  5.467974435e-09  4.200000000e-07 -1.036998988e-09
  power    1.075366901e-15  2.989874442e-08  1.764000000e-04  1.075366901e-15


 **** inductors

 subckt                                                                      
 element        0:l1             0:l2             0:l3             0:l4      
  l value    3.8182000000     5.0614000000     3.8182000000     5.0614000000 
  v drop     0.               0.               0.               0.           
  current    0.               0.               0.               0.           
  power      0.               0.               0.               0.           

 subckt                   
 element        0:l5      
  l value  6.458000000e-02
  v drop     0.           
  current    0.           
  power      0.           


 **** voltage-controlled current sources


 subckt           xu1              xu2              xu3              xu4     
 element        1:g1             2:g1             3:g1             4:g1      
  v drop   183.9440655545   183.9440655545    98.5312525102   193.9591324558 
  current  4.944939616e-03  4.944939616e-03  9.258807295e-03  7.593657250e-03



 subckt           xu5              xu5              xu6              xu6     
 element        5:g1             5:g2             6:g1             6:g2      
  v drop   420.0000000000   420.0000000000   420.0000000000   420.0000000000 
  current  4.615583919e-02  2.984058130e-04  4.615583919e-02  2.984058130e-04




 **** voltage-controlled voltage sources


 subckt           xu1              xu2              xu3              xu4     
 element        1:e1             2:e1             3:e1             4:e1      
  volts      2.2787795373     2.2787795373     3.6917832713     3.1695843185 
  current -2.278779537e-09 -2.278779537e-09 -3.691783271e-09 -3.169584319e-09



 subckt           xu5              xu6     
 element        5:e1             6:e1      
  volts      5.4679744349     5.4679744349 
  current -5.467974435e-09 -5.467974435e-09




 **** diodes


 subckt                            xu1              xu2              xu3     
 element        0:d1             1:d3             2:d3             3:d3      
 model          0:nscw100x       1:dx             2:dx             3:dx      
  id       1.398250475e-05 -1.000000000e-09 -1.000000000e-09 -1.000000000e-09
  vd         1.6621933736    -7.2629925221    -7.2629925221    -0.9570308995 
  req      1.766575466e+04    0.               0.               0.           
  cap      8.562957990e-11  3.149900715e-12  3.149900715e-12  6.747692670e-12



 subckt           xu4              xu5              xu6     
 element        4:d3             5:d3             6:d3      
 model          4:dx             5:dx             6:dx      
  id      -1.000000000e-09 -1.000000000e-09 -1.000000000e-09
  vd        -6.5525781120   -36.9997708232   -36.9997708232 
  req        0.               0.               0.           
  cap      3.298565938e-12  1.454790345e-12  1.454790345e-12




 **** bipolar junction transistors


 subckt                                    
 element        0:q1             0:q2      
 model          0:x2n3904x       0:x2n2907x
 region    FwdActive       Saturation      
  ib       2.861596014e-05 -1.651072110e-03
  ic       9.890245087e-03 -7.593850208e-03
  vbe        0.7075357038    -0.7377011417 
  vce       18.3362411914  -3.254167042e-02
  vbc      -17.6287054876    -0.7051594713 
  vs        -7.2622271100  -199.8230648373 
  power      0.1813701662   1.465114351e-03
  betad    345.6198932016     4.5993449731 
  gm         0.3771071394     0.3424395725 
  rpi      897.8152233677   444.6318187372 
  rx        20.0000000000    10.0000000000 
  ro       1.189336439e+04    5.6525353833 
  cpi      1.425021372e-10  2.447384778e-10
  cmu      1.391904807e-12  1.861504970e-08
  cbx        0.               0.           
  ccs        0.               0.           
  betaac   338.5725305578   152.2595299208 
  ft       4.171018095e+08  2.366457886e+06



 ******
 ***amplificador de potencia valvulado

 ****** ac analysis tnom=  25.000 temp=  25.000 ******
 maxac= 2.45685046e+01    at= 4.07380278e+02
             from=   0.10000000    to= 1.00000000e+05
 locut= 2.43704528e+01
 hicut= 2.35197076e+01
 
 **warning** invalid fft start time, reset to transient start time 9.90000e-01

 ******
 ***amplificador de potencia valvulado

 ****** transient analysis tnom=  25.000 temp=  25.000 ******
 fourier components of transient response v(out)
 dc component =  0.2010692036
  
 harmonic frequency         fourier           normalized        phase             normalized        
 no       (hz)              component         component         (deg)             phase (deg)       
 1         1.0000000000e+03  1.9334383512e+01  1.0000000000     -9.0925389844e+01  0.               
 2         2.0000000000e+03  0.1586028253      8.2031488192e-03 -1.7593556637e+02 -8.5010176531e+01 
 3         3.0000000000e+03  9.8434189982e-02  5.0911470707e-03  8.8510795604e+01  1.7943618545e+02 
 4         4.0000000000e+03  3.2418453778e-02  1.6767254957e-03 -1.7908450542e+02 -8.8159115577e+01 
 5         5.0000000000e+03  9.2046076592e-02  4.7607453599e-03  8.5196844131e+01  1.7612223397e+02 
 6         6.0000000000e+03  1.0277701477e-03  5.3157637379e-05 -5.3286495266      8.5596740317e+01 
 7         7.0000000000e+03  3.6250450266e-03  1.8749214447e-04 -1.0183016968e+02 -1.0904779835e+01 
 8         8.0000000000e+03  1.3707788891e-03  7.0898505156e-05 -1.7856940316e+02 -8.7644013320e+01 
 9         9.0000000000e+03  2.2760441955e-03  1.1772002940e-04  8.1425883665e+01  1.7235127351e+02 
  
 total harmonic distortion =   1.0897  percent
  fft components of transient response v(out)

 Window: Rectangular

 DC: ON
 First Harmonic:  1.0000e+02
 Start Freq:  1.0000e+03
 Stop  Freq:  2.0000e+04

 dc component: mag(dB)=  -1.400E+01  mag=   1.995E-01  phase=   0.000E+00

 frequency    frequency    fft_mag     fft_mag    fft_phase
   index        (hz)        (dB)                    (deg)

    10       1.0000e+03    2.5728e+01   1.9338e+01   -9.0925e+01
    11       1.1000e+03   -6.9326e+01   3.4175e-04   -1.2619e+02
    12       1.2000e+03   -7.3234e+01   2.1792e-04   -1.3012e+02
    13       1.3000e+03   -6.6599e+01   4.6781e-04    3.3301e+01
    14       1.4000e+03   -6.9309e+01   3.4240e-04   -7.6261e+01
    15       1.5000e+03   -6.7060e+01   4.4359e-04    1.5683e+02
    16       1.6000e+03   -6.5473e+01   5.3254e-04    1.0934e+02
    17       1.7000e+03   -6.8603e+01   3.7140e-04   -4.5756e+01
    18       1.8000e+03   -6.1802e+01   8.1265e-04   -1.5380e+02
    19       1.9000e+03   -6.6764e+01   4.5899e-04    9.1223e+01
    20       2.0000e+03   -1.6013e+01   0.1582   -1.7580e+02
    21       2.1000e+03   -6.8745e+01   3.6540e-04   -1.3245e+02
    22       2.2000e+03   -6.3057e+01   7.0332e-04    1.3087e+02
    23       2.3000e+03   -6.7538e+01   4.1986e-04    2.3078e+01
    24       2.4000e+03   -6.6716e+01   4.6153e-04   -1.6689e+02
    25       2.5000e+03   -6.7372e+01   4.2795e-04    1.5293e+02
    26       2.6000e+03   -6.6274e+01   4.8561e-04    1.1814e+02
    27       2.7000e+03   -6.8857e+01   3.6072e-04   -5.5695e+01
    28       2.8000e+03   -7.0724e+01   2.9094e-04    8.0734e+01
    29       2.9000e+03   -6.7180e+01   4.3753e-04    8.5203e+01
    30       3.0000e+03   -2.0148e+01   9.8313e-02    8.8115e+01
    31       3.1000e+03   -6.8954e+01   3.5671e-04   -1.3677e+02
    32       3.2000e+03   -7.3507e+01   2.1118e-04   -1.2778e+02
    33       3.3000e+03   -6.7991e+01   3.9851e-04    1.3827e+01
    34       3.4000e+03   -6.5792e+01   5.1336e-04   -7.0641e+01
    35       3.5000e+03   -6.8073e+01   3.9478e-04    1.4786e+02
    36       3.6000e+03   -6.6944e+01   4.4958e-04    1.0628e+02
    37       3.7000e+03   -6.9129e+01   3.4960e-04   -6.2551e+01
    38       3.8000e+03   -6.3128e+01   6.9760e-04   -1.4606e+02
    39       3.9000e+03   -6.7464e+01   4.2347e-04    7.9646e+01
    40       4.0000e+03   -2.9791e+01   3.2393e-02   -1.7922e+02
    41       4.1000e+03   -6.8415e+01   3.7953e-04   -1.3859e+02
    42       4.2000e+03   -6.5803e+01   5.1267e-04    1.3240e+02
    43       4.3000e+03   -6.8696e+01   3.6744e-04    6.7096
    44       4.4000e+03   -6.6847e+01   4.5463e-04    1.7685e+02
    45       4.5000e+03   -6.8411e+01   3.7971e-04    1.4549e+02
    46       4.6000e+03   -6.5469e+01   5.3277e-04    1.4219e+02
    47       4.7000e+03   -6.9098e+01   3.5083e-04   -6.8360e+01
    48       4.8000e+03   -7.2023e+01   2.5052e-04    5.6251e+01
    49       4.9000e+03   -6.8416e+01   3.7951e-04    7.4315e+01
    50       5.0000e+03   -2.0612e+01   9.3195e-02    8.5314e+01
    51       5.1000e+03   -6.8937e+01   3.5741e-04   -1.4465e+02
    52       5.2000e+03   -7.2971e+01   2.2461e-04   -1.5569e+02
    53       5.3000e+03   -6.8843e+01   3.6130e-04    1.8666
    54       5.4000e+03   -6.6431e+01   4.7690e-04   -6.0721e+01
    55       5.5000e+03   -6.8585e+01   3.7217e-04    1.4266e+02
    56       5.6000e+03   -6.8450e+01   3.7799e-04    9.1899e+01
    57       5.7000e+03   -6.9066e+01   3.5215e-04   -7.3945e+01
    58       5.8000e+03   -6.4311e+01   6.0874e-04   -1.4658e+02
    59       5.9000e+03   -6.8684e+01   3.6796e-04    7.1358e+01
    60       6.0000e+03   -5.8968e+01   1.1261e-03   -1.4640e+01
    61       6.1000e+03   -6.8864e+01   3.6042e-04   -1.4986e+02
    62       6.2000e+03   -6.5768e+01   5.1478e-04    1.5892e+02
    63       6.3000e+03   -6.8924e+01   3.5794e-04   -1.5677
    64       6.4000e+03   -6.9549e+01   3.3308e-04    1.7591e+02
    65       6.5000e+03   -6.8455e+01   3.7779e-04    1.3809e+02
    66       6.6000e+03   -6.3875e+01   6.4012e-04    1.4501e+02
    67       6.7000e+03   -6.8979e+01   3.5566e-04   -7.7871e+01
    68       6.8000e+03   -7.3798e+01   2.0421e-04    6.9749e+01
    69       6.9000e+03   -6.8471e+01   3.7710e-04    6.6476e+01
    70       7.0000e+03   -5.1944e+01   2.5282e-03   -9.0325e+01
    71       7.1000e+03   -6.8610e+01   3.7110e-04   -1.5349e+02
    72       7.2000e+03   -7.4421e+01   1.9009e-04   -1.4182e+02
    73       7.3000e+03   -6.8725e+01   3.6621e-04   -7.9049
    74       7.4000e+03   -6.5673e+01   5.2043e-04   -3.3862e+01
    75       7.5000e+03   -6.8288e+01   3.8513e-04    1.3341e+02
    76       7.6000e+03   -6.7588e+01   4.1743e-04    9.4323e+01
    77       7.7000e+03   -6.8746e+01   3.6535e-04   -8.4329e+01
    78       7.8000e+03   -6.3620e+01   6.5917e-04   -1.3346e+02
    79       7.9000e+03   -6.8379e+01   3.8109e-04    6.0896e+01
    80       8.0000e+03   -5.9951e+01   1.0057e-03   -1.7454e+02
    81       8.1000e+03   -6.8406e+01   3.7992e-04   -1.5952e+02
    82       8.2000e+03   -6.7782e+01   4.0823e-04    1.5072e+02
    83       8.3000e+03   -6.8612e+01   3.7101e-04   -1.3884e+01
    84       8.4000e+03   -6.7277e+01   4.3266e-04    1.6558e+02
    85       8.5000e+03   -6.8159e+01   3.9087e-04    1.2743e+02
    86       8.6000e+03   -6.3433e+01   6.7349e-04    1.4187e+02
    87       8.7000e+03   -6.8536e+01   3.7430e-04   -9.0411e+01
    88       8.8000e+03   -7.2590e+01   2.3470e-04    4.8163e+01
    89       8.9000e+03   -6.8262e+01   3.8628e-04    5.4175e+01
    90       9.0000e+03   -4.8798e+01   3.6316e-03    7.8499e+01
    91       9.1000e+03   -6.8252e+01   3.8674e-04   -1.6569e+02
    92       9.2000e+03   -7.3124e+01   2.2070e-04   -1.7252e+02
    93       9.3000e+03   -6.8474e+01   3.7696e-04   -2.1268e+01
    94       9.4000e+03   -6.4108e+01   6.2318e-04   -3.5385e+01
    95       9.5000e+03   -6.8145e+01   3.9151e-04    1.2098e+02
    96       9.6000e+03   -6.7650e+01   4.1448e-04    7.2614e+01
    97       9.7000e+03   -6.8419e+01   3.7935e-04   -9.7376e+01
    98       9.8000e+03   -6.4952e+01   5.6548e-04   -1.3342e+02
    99       9.9000e+03   -6.8356e+01   3.8212e-04    4.7292e+01
   100       1.0000e+04   -7.6742e+01   1.4550e-04   -9.3818e+01
   101       1.0100e+04   -6.8199e+01   3.8908e-04   -1.7196e+02
   102       1.0200e+04   -6.8447e+01   3.7812e-04    1.6931e+02
   103       1.0300e+04   -6.8530e+01   3.7454e-04   -2.8198e+01
   104       1.0400e+04   -6.8701e+01   3.6726e-04    1.5890e+02
   105       1.0500e+04   -6.8177e+01   3.9006e-04    1.1493e+02
   106       1.0600e+04   -6.2883e+01   7.1758e-04    1.5001e+02
   107       1.0700e+04   -6.8404e+01   3.8003e-04   -1.0398e+02
   108       1.0800e+04   -7.3386e+01   2.1414e-04    5.1068e+01
   109       1.0900e+04   -6.8414e+01   3.7958e-04    4.0958e+01
   110       1.1000e+04   -5.5789e+01   1.6238e-03    7.6872e+01
   111       1.1100e+04   -6.8214e+01   3.8841e-04   -1.7790e+02
   112       1.1200e+04   -7.4604e+01   1.8613e-04   -1.6469e+02
   113       1.1300e+04   -6.8545e+01   3.7388e-04   -3.4837e+01
   114       1.1400e+04   -6.2282e+01   7.6893e-04   -3.0017e+01
   115       1.1500e+04   -6.8268e+01   3.8602e-04    1.0923e+02
   116       1.1600e+04   -6.7526e+01   4.2042e-04    7.1933e+01
   117       1.1700e+04   -6.8365e+01   3.8172e-04   -1.1017e+02
   118       1.1800e+04   -6.4901e+01   5.6878e-04   -1.2402e+02
   119       1.1900e+04   -6.8553e+01   3.7356e-04    3.4908e+01
   120       1.2000e+04   -7.3059e+01   2.2236e-04   -6.6454e+01
   121       1.2100e+04   -6.8174e+01   3.9022e-04    1.7649e+02
   122       1.2200e+04   -7.1839e+01   2.5590e-04    1.7629e+02
   123       1.2300e+04   -6.8645e+01   3.6960e-04   -4.1066e+01
   124       1.2400e+04   -6.7397e+01   4.2671e-04    1.4557e+02
   125       1.2500e+04   -6.8279e+01   3.8551e-04    1.0400e+02
   126       1.2600e+04   -6.2530e+01   7.4732e-04    1.6077e+02
   127       1.2700e+04   -6.8366e+01   3.8167e-04   -1.1610e+02
   128       1.2800e+04   -7.2623e+01   2.3381e-04    2.8732e+01
   129       1.2900e+04   -6.8556e+01   3.7343e-04    2.9785e+01
   130       1.3000e+04   -5.4856e+01   1.8080e-03    7.4143e+01
   131       1.3100e+04   -6.8110e+01   3.9311e-04    1.7100e+02
   132       1.3200e+04   -7.3454e+01   2.1247e-04    1.6749e+02
   133       1.3300e+04   -6.8577e+01   3.7254e-04   -4.6555e+01
   134       1.3400e+04   -6.1949e+01   7.9900e-04   -1.6095e+01
   135       1.3500e+04   -6.8194e+01   3.8932e-04    9.8402e+01
   136       1.3600e+04   -6.7635e+01   4.1520e-04    5.1878e+01
   137       1.3700e+04   -6.8272e+01   3.8585e-04   -1.2179e+02
   138       1.3800e+04   -6.7136e+01   4.3976e-04   -1.2260e+02
   139       1.3900e+04   -6.8502e+01   3.7576e-04    2.3721e+01
   140       1.4000e+04   -7.3557e+01   2.0997e-04   -6.5931e+01
   141       1.4100e+04   -6.8030e+01   3.9674e-04    1.6541e+02
   142       1.4200e+04   -6.9960e+01   3.1770e-04   -1.6315e+02
   143       1.4300e+04   -6.8530e+01   3.7455e-04   -5.2675e+01
   144       1.4400e+04   -6.8847e+01   3.6114e-04    1.4235e+02
   145       1.4500e+04   -6.8119e+01   3.9267e-04    9.2955e+01
   146       1.4600e+04   -6.2987e+01   7.0902e-04    1.5776e+02
   147       1.4700e+04   -6.8161e+01   3.9080e-04   -1.2778e+02
   148       1.4800e+04   -7.3375e+01   2.1442e-04    3.5979e+01
   149       1.4900e+04   -6.8364e+01   3.8177e-04    1.8218e+01
   150       1.5000e+04   -5.5183e+01   1.7412e-03    7.5424e+01
   151       1.5100e+04   -6.7893e+01   4.0302e-04    1.5912e+02
   152       1.5200e+04   -7.5254e+01   1.7271e-04    1.7937e+02
   153       1.5300e+04   -6.8346e+01   3.8254e-04   -5.8524e+01
   154       1.5400e+04   -6.0535e+01   9.4030e-04   -1.6139e+01
   155       1.5500e+04   -6.8006e+01   3.9781e-04    8.6103e+01
   156       1.5600e+04   -6.7237e+01   4.3466e-04    5.1244e+01
   157       1.5700e+04   -6.8043e+01   3.9616e-04   -1.3372e+02
   158       1.5800e+04   -6.6042e+01   4.9875e-04   -1.1280e+02
   159       1.5900e+04   -6.8277e+01   3.8562e-04    1.0985e+01
   160       1.6000e+04   -6.9776e+01   3.2447e-04   -6.7401e+01
   161       1.6100e+04   -6.7838e+01   4.0558e-04    1.5334e+02
   162       1.6200e+04   -7.5550e+01   1.6691e-04   -1.1956e+02
   163       1.6300e+04   -6.8239e+01   3.8732e-04   -6.5583e+01
   164       1.6400e+04   -6.6800e+01   4.5706e-04    1.3029e+02
   165       1.6500e+04   -6.7967e+01   3.9964e-04    8.0079e+01
   166       1.6600e+04   -6.3071e+01   7.0216e-04    1.6389e+02
   167       1.6700e+04   -6.7910e+01   4.0227e-04   -1.4049e+02
   168       1.6800e+04   -7.1963e+01   2.5226e-04    1.1505e+01
   169       1.6900e+04   -6.8201e+01   3.8900e-04    4.5756
   170       1.7000e+04   -5.5686e+01   1.6433e-03    7.3898e+01
   171       1.7100e+04   -6.7770e+01   4.0877e-04    1.4646e+02
   172       1.7200e+04   -7.3217e+01   2.1835e-04    1.4941e+02
   173       1.7300e+04   -6.8131e+01   3.9216e-04   -7.2093e+01
   174       1.7400e+04   -6.0642e+01   9.2878e-04   -1.8636e+01
   175       1.7500e+04   -6.7981e+01   3.9898e-04    7.3007e+01
   176       1.7600e+04   -6.7201e+01   4.3645e-04    3.0605e+01
   177       1.7700e+04   -6.7846e+01   4.0521e-04   -1.4671e+02
   178       1.7800e+04   -6.9237e+01   3.4525e-04   -1.0054e+02
   179       1.7900e+04   -6.8237e+01   3.8740e-04   -2.7594
   180       1.8000e+04   -7.0895e+01   2.8527e-04   -7.6106e+01
   181       1.8100e+04   -6.7764e+01   4.0907e-04    1.4066e+02
   182       1.8200e+04   -7.0829e+01   2.8743e-04   -1.1831e+02
   183       1.8300e+04   -6.8131e+01   3.9214e-04   -7.9397e+01
   184       1.8400e+04   -6.8544e+01   3.7395e-04    1.2062e+02
   185       1.8500e+04   -6.8022e+01   3.9711e-04    6.7111e+01
   186       1.8600e+04   -6.2590e+01   7.4214e-04    1.7495e+02
   187       1.8700e+04   -6.7811e+01   4.0688e-04   -1.5354e+02
   188       1.8800e+04   -7.2636e+01   2.3344e-04    1.0571e+01
   189       1.8900e+04   -6.8282e+01   3.8537e-04   -8.8401
   190       1.9000e+04   -5.7771e+01   1.2926e-03    7.9030e+01
   191       1.9100e+04   -6.7742e+01   4.1011e-04    1.3409e+02
   192       1.9200e+04   -7.5614e+01   1.6569e-04    1.6168e+02
   193       1.9300e+04   -6.8135e+01   3.9199e-04   -8.5515e+01
   194       1.9400e+04   -5.9657e+01   1.0403e-03   -1.2606e+01
   195       1.9500e+04   -6.8026e+01   3.9691e-04    6.0720e+01
   196       1.9600e+04   -6.7524e+01   4.2054e-04    2.8486e+01
   197       1.9700e+04   -6.7807e+01   4.0703e-04   -1.5966e+02
   198       1.9800e+04   -6.9562e+01   3.3257e-04   -9.1853e+01
   199       1.9900e+04   -6.8299e+01   3.8463e-04   -1.5310e+01
   200       2.0000e+04   -6.8842e+01   3.6133e-04   -8.1540e+01
  
 maxv= 1.96615355e+01    at=   0.99825195
             from=   0.99000000    to=   1.00000000
 minv=-1.90168298e+01    at=   0.99075195
             from=   0.99000000    to=   1.00000000
 rmsv= 1.36735689e+01  from=   0.99000000     to=   1.00000000
 maxi=   2.37710373    at=   0.99075195
             from=   0.99000000    to=   1.00000000
 mini=  -2.45769194    at=   0.99825195
             from=   0.99000000    to=   1.00000000
 rmsi=   1.70919611  from=   0.99000000     to=   1.00000000

          ***** job concluded
 ******  
 ***amplificador de potencia valvulado

 ****** job statistics summary tnom=  25.000 temp=  25.000 ******

  ******  HSPICE Threads Information  ******

  Command Line Threads Count :     1
  Available CPU Count        :     8
  Actual Threads Count       :     1


  ******  Circuit Statistics  ******
  # nodes       =      53 # elements   =     100
  # resistors   =      36 # capacitors =      21 # inductors   =       5
  # mutual_inds =      10 # vccs       =       8 # vcvs        =       6
  # cccs        =       0 # ccvs       =       0 # volt_srcs   =       5
  # curr_srcs   =       0 # diodes     =       7 # bjts        =       2
  # jfets       =       0 # mosfets    =       0 # U elements  =       0
  # T elements  =       0 # W elements =       0 # B elements  =       0
  # S elements  =       0 # P elements =       0 # va device   =       0
  # vector_srcs =       0 # N elements =       0


  ******  Runtime Statistics (seconds)  ******

  analysis           time    # points   tot. iter  conv.iter
  op point           0.06           1         214
  ac analysis        0.04         601         601
  transient          5.57        1001      169616       59332 rev=      4160
  readin             0.21
  errchk             0.13
  setup              0.02
  output             0.03


           peak memory used         65.45 megabytes
           total cpu time            6.14 seconds
           total elapsed time        6.19 seconds
           job started at     13:25:35 07/24/2021
           job ended   at     13:25:41 07/24/2021
  **info** (param.txt:69) DC voltage reset to initial transient source value in source 0:v5. new dc=0.0000D+00
  **warning** (circuito.sp:121) Inductance for the inductor l1 >= 0.1 henry, please verify it.
  **warning** For .option genk=1, 0 implicit mutual inductors are generated!

 *****************************************************************
 ******  option summary
 ******
 runlvl  = 1         bypass  = 2.0000000000  
  Opening plot unit= 79
 file=C:\Program Files\Polyspace\R2020a\cirop\Circuits\Valvulado\Power_Amp_01\circuito.pa1

FFT analysis is detected and FFT_ACCURATE is turned on automatically to improve accuracy. 
To disable FFT_ACCURATE, set .OPTION FFT_ACCURATE=0.
 ******  
 

 ****** operating point information tnom=  25.000 temp=  25.000 ******
 ****** operating point status is all       simulation time is     0.           
    node    =voltage            node    =voltage

 +0:n001    = 300.0000000000  0:n002    = 420.0000000000 
 +0:n003    = 420.0000000000  0:n004    = 200.5117145884 
 +0:n005    = 191.2072816889  0:n006    = -36.9997718602 
 +0:n007    = 191.2072816889  0:n009    = 201.4687474898 
 +0:n010    = 2.215978584e-04 0:n011    = 2.215978584e-04
 +0:n012    = -37.0000000000  0:n013    = 420.0000000000 
 +0:n014    =   7.2632161345  0:n015    = 200.5442552579 
 +0:n016    = 420.0000000000  0:n017    = 199.8065541161 
 +0:n018    = -36.9997718602  0:n019    = -10.3654893531 
 +0:n020    = 200.5117135875  0:n021    = -11.0730250569 
 +0:n022    = 420.0000000000  0:n023    =   0.           
 +0:n024    = 1.006552578e-06 0:n025    = -20.0000000000 
 +0:n026    =   6.5525811317  0:n027    =   0.4775009700 
 +0:out     =   0.            1:5       = 2.236123843e-04
 +1:7       =   2.2787795373  2:5       = 2.236123843e-04
 +2:7       =   2.2787795373  3:5       = 200.5117165903 
 +3:7       =   3.6917832713  4:5       = 3.019657734e-06
 +4:7       =   3.1695843185  5:5       = -36.9997708232 
 +5:7       =   5.4679744349  6:5       = -36.9997708232 
 +6:7       =   5.4679744349 


 **** voltage sources

 subckt                                                                      
 element        0:v1             0:v2             0:v3             0:v4      
  volts    -37.0000000000   420.0000000000   -20.0000000000   300.0000000000 
  current  2.073997970e-09 -9.290933000e-02  9.931707062e-03 -1.914915295e-02
  power    7.673792488e-08   39.0219185985     0.1986341412     5.7447458837 

 subckt                   
 element        0:v5      
  volts      0.           
  current  1.006552578e-09
  power      0.           

     total voltage source power dissipation=   44.9652987002  watts



 **** resistors

 subckt                                                                      
 element        0:r1             0:r2             0:r3             0:r4      
  r value  900.0000000000   7.500000000e+05  2.500000000e+05  2.200000000e+05
  v drop    -8.9269749431    -9.6345106469   -10.3654893531  -2.215978584e-04
  current -9.918861048e-03 -1.284601420e-05 -4.146195741e-05 -1.007262993e-09
  power    8.854542404e-02  1.237650605e-04  4.297734781e-04  2.232073219e-13

 subckt                                                                      
 element        0:r5             0:r6             0:r7             0:r8      
  r value  2.200000000e+05  2.200000000e+04  2.200000000e+04  2.200000000e+05
  v drop  -2.215978584e-04 -108.7927183111  -108.7927183111  -2.281397767e-04
  current -1.007262993e-09 -4.945123560e-03 -4.945123560e-03 -1.036998985e-09
  power    2.232073219e-13    0.5379934344     0.5379934344   2.365807168e-13

 subckt                                                                      
 element        0:r9             0:r10            0:r11            0:r12     
  r value  2.200000000e+05  1.000000000e+03  4.700000000e+05  1.200000000e+05
  v drop   2.281397767e-04 -1.006552578e-06    0.            -199.8065541161 
  current  1.036998985e-09 -1.006552578e-09    0.            -1.665054618e-03
  power    2.365807168e-13  1.013148093e-15    0.               0.3326888256 

 subckt                                                                      
 element        0:r13            0:r14            0:r15            0:r16     
  r value  100.0000000000     8.0000000000   1.000000000e+03  800.0000000000 
  v drop    -0.9244922319     0.            -1.000940330e-06    6.0750801617 
  current -9.244922319e-03    0.            -1.000940330e-09  7.593850202e-03
  power    8.546858868e-03    0.             1.001881544e-15  4.613324871e-02

 subckt                                     xu1              xu1             
 element        0:r17            0:r18            1:re1            1:rcp     
  r value  3.300000000e+04   63.0000000000   1.000000000e+09  1.000000000e+09
  v drop     0.4775009700     0.4775009700     2.2787795373   183.9440655545 
  current  1.446972636e-05  7.579380476e-03  2.278779537e-09  1.839440656e-07
  power    6.909308373e-06  3.619161529e-03  5.192836180e-09  3.383541925e-05

 subckt   xu1              xu2              xu2              xu2             
 element        1:r1             2:re1            2:rcp            2:r1      
  r value  2.000000000e+03  1.000000000e+09  1.000000000e+09  2.000000000e+03
  v drop  -2.014525985e-06    2.2787795373   183.9440655545  -2.014525985e-06
  current -1.007262993e-09  2.278779537e-09  1.839440656e-07 -1.007262993e-09
  power    2.029157472e-15  5.192836180e-09  3.383541925e-05  2.029157472e-15

 subckt   xu3              xu3              xu3              xu4             
 element        3:re1            3:rcp            3:r1             4:re1     
  r value  1.000000000e+09  1.000000000e+09  2.000000000e+03  1.000000000e+09
  v drop     3.6917832713    98.5312525102  -2.001880603e-06    3.1695843185 
  current  3.691783271e-09  9.853125251e-08 -1.000940301e-09  3.169584319e-09
  power    1.362926372e-08  9.708407721e-06  2.003762974e-15  1.004626475e-08

 subckt   xu4              xu4              xu5              xu5             
 element        4:rcp            4:r1             5:re1            5:rcp     
  r value  1.000000000e+09  2.000000000e+03  1.000000000e+09  1.000000000e+09
  v drop   193.9591324558  -2.013105156e-06    5.4679744349   420.0000000000 
  current  1.939591325e-07 -1.006552578e-09  5.467974435e-09  4.200000000e-07
  power    3.762014506e-05  2.026296185e-15  2.989874442e-08  1.764000000e-04

 subckt   xu5              xu6              xu6              xu6             
 element        5:r1             6:re1            6:rcp            6:r1      
  r value  1.000000000e+03  1.000000000e+09  1.000000000e+09  1.000000000e+03
  v drop  -1.036998988e-06    5.4679744349   420.0000000000  -1.036998988e-06
  current -1.036998988e-09  5.467974435e-09  4.200000000e-07 -1.036998988e-09
  power    1.075366901e-15  2.989874442e-08  1.764000000e-04  1.075366901e-15


 **** inductors

 subckt                                                                      
 element        0:l1             0:l2             0:l3             0:l4      
  l value    3.8182000000     5.0614000000     3.8182000000     5.0614000000 
  v drop     0.               0.               0.               0.           
  current    0.               0.               0.               0.           
  power      0.               0.               0.               0.           

 subckt                   
 element        0:l5      
  l value  6.458000000e-02
  v drop     0.           
  current    0.           
  power      0.           


 **** voltage-controlled current sources


 subckt           xu1              xu2              xu3              xu4     
 element        1:g1             2:g1             3:g1             4:g1      
  v drop   183.9440655545   183.9440655545    98.5312525102   193.9591324558 
  current  4.944939616e-03  4.944939616e-03  9.258807295e-03  7.593657250e-03



 subckt           xu5              xu5              xu6              xu6     
 element        5:g1             5:g2             6:g1             6:g2      
  v drop   420.0000000000   420.0000000000   420.0000000000   420.0000000000 
  current  4.615583919e-02  2.984058130e-04  4.615583919e-02  2.984058130e-04




 **** voltage-controlled voltage sources


 subckt           xu1              xu2              xu3              xu4     
 element        1:e1             2:e1             3:e1             4:e1      
  volts      2.2787795373     2.2787795373     3.6917832713     3.1695843185 
  current -2.278779537e-09 -2.278779537e-09 -3.691783271e-09 -3.169584319e-09



 subckt           xu5              xu6     
 element        5:e1             6:e1      
  volts      5.4679744349     5.4679744349 
  current -5.467974435e-09 -5.467974435e-09




 **** diodes


 subckt                            xu1              xu2              xu3     
 element        0:d1             1:d3             2:d3             3:d3      
 model          0:nscw100x       1:dx             2:dx             3:dx      
  id       1.398250475e-05 -1.000000000e-09 -1.000000000e-09 -1.000000000e-09
  vd         1.6621933736    -7.2629925221    -7.2629925221    -0.9570308995 
  req      1.766575466e+04    0.               0.               0.           
  cap      8.562957990e-11  3.149900715e-12  3.149900715e-12  6.747692670e-12



 subckt           xu4              xu5              xu6     
 element        4:d3             5:d3             6:d3      
 model          4:dx             5:dx             6:dx      
  id      -1.000000000e-09 -1.000000000e-09 -1.000000000e-09
  vd        -6.5525781120   -36.9997708232   -36.9997708232 
  req        0.               0.               0.           
  cap      3.298565938e-12  1.454790345e-12  1.454790345e-12




 **** bipolar junction transistors


 subckt                                    
 element        0:q1             0:q2      
 model          0:x2n3904x       0:x2n2907x
 region    FwdActive       Saturation      
  ib       2.861596014e-05 -1.651072110e-03
  ic       9.890245087e-03 -7.593850208e-03
  vbe        0.7075357038    -0.7377011417 
  vce       18.3362411914  -3.254167042e-02
  vbc      -17.6287054876    -0.7051594713 
  vs        -7.2622271100  -199.8230648373 
  power      0.1813701662   1.465114351e-03
  betad    345.6198932016     4.5993449731 
  gm         0.3771071394     0.3424395725 
  rpi      897.8152233677   444.6318187372 
  rx        20.0000000000    10.0000000000 
  ro       1.189336439e+04    5.6525353833 
  cpi      1.425021372e-10  2.447384778e-10
  cmu      1.391904807e-12  1.861504970e-08
  cbx        0.               0.           
  ccs        0.               0.           
  betaac   338.5725305578   152.2595299208 
  ft       4.171018095e+08  2.366457886e+06



 ******
 

 ****** ac analysis tnom=  25.000 temp=  25.000 ******
 maxac=-5.60000000e+02    at= 1.00000000e+05
             from=   0.10000000    to= 1.00000000e+05
 locut=-5.60000000e+02
 hicut=-5.60000000e+02
 
 **warning** invalid fft start time, reset to transient start time 9.90000e-01

 ******
 

 ****** transient analysis tnom=  25.000 temp=  25.000 ******
 fourier components of transient response v(out)
 dc component = -9.3493783850
  
 harmonic frequency         fourier       normalized    phase             normalized        
 no       (hz)              component     component     (deg)             phase (deg)       
 1         1.0000000000e+03  0.2184609686  1.0000000000  3.2526171917e+01  0.               
 2         2.0000000000e+03  0.1919660340  0.8787200533  1.6158837866e+01 -1.6367334051e+01 
 3         3.0000000000e+03  0.1864041323  0.8532605776  9.1830410560     -2.3343130862e+01 
 4         4.0000000000e+03  0.1841298603  0.8428501503  5.0462764536     -2.7479895464e+01 
 5         5.0000000000e+03  0.1827533628  0.8365492652  2.1104755403     -3.0415696377e+01 
 6         6.0000000000e+03  0.1816710602  0.8315950504 -0.2064209420     -3.2732592859e+01 
 7         7.0000000000e+03  0.1806760060  0.8270402130 -2.1603927302     -3.4686564648e+01 
 8         8.0000000000e+03  0.1796836582  0.8224977640 -3.8806819786     -3.6406853896e+01 
 9         9.0000000000e+03  0.1786555589  0.8177916632 -5.4392989163     -3.7965470834e+01 
  
 total harmonic distortion =   237.302  percent
  fft components of transient response v(out)

 Window: Rectangular

 DC: ON
 First Harmonic:  1.0000e+02
 Start Freq:  1.0000e+03
 Stop  Freq:  2.0000e+04

 dc component: mag(dB)=  -1.726E+01  mag=   1.371E-01  phase=   0.000E+00

 frequency    frequency    fft_mag     fft_mag    fft_phase
   index        (hz)        (dB)                    (deg)

    10       1.0000e+03   -5.1073e+01   2.7948e-03   -1.2125e+02
    11       1.1000e+03   -3.1755e+01   2.5836e-02   -1.5124e+02
    12       1.2000e+03   -6.8001e+01   3.9808e-04    2.8938e+01
    13       1.3000e+03   -3.7252e+01   1.3721e-02    1.6743e+02
    14       1.4000e+03   -6.3536e+01   6.6559e-04   -8.0590e+01
    15       1.5000e+03    1.2176e+01   4.0628   -9.1839e+01
    16       1.6000e+03   -6.3821e+01   6.4410e-04    7.2348e+01
    17       1.7000e+03   -3.7216e+01   1.3779e-02   -1.6820e+02
    18       1.8000e+03   -6.9124e+01   3.4977e-04   -2.2486e+01
    19       1.9000e+03   -3.1388e+01   2.6951e-02    1.5089e+02
    20       2.0000e+03   -5.4572e+01   1.8680e-03   -1.4209e+02
    21       2.1000e+03   -3.1863e+01   2.5518e-02   -1.5134e+02
    22       2.2000e+03   -6.8211e+01   3.8854e-04    2.6591e+01
    23       2.3000e+03   -3.7211e+01   1.3786e-02    1.6730e+02
    24       2.4000e+03   -6.3667e+01   6.5561e-04   -7.9905e+01
    25       2.5000e+03    7.7291   2.4348   -9.3324e+01
    26       2.6000e+03   -6.3879e+01   6.3978e-04    7.2889e+01
    27       2.7000e+03   -3.7251e+01   1.3723e-02   -1.6843e+02
    28       2.8000e+03   -6.8845e+01   3.6121e-04   -2.3434e+01
    29       2.9000e+03   -3.1270e+01   2.7321e-02    1.5075e+02
    30       3.0000e+03   -5.5703e+01   1.6399e-03   -1.5437e+02
    31       3.1000e+03   -3.1971e+01   2.5203e-02   -1.5145e+02
    32       3.2000e+03   -6.8287e+01   3.8515e-04    2.5641e+01
    33       3.3000e+03   -3.7181e+01   1.3834e-02    1.6711e+02
    34       3.4000e+03   -6.3685e+01   6.5425e-04   -7.9794e+01
    35       3.5000e+03    4.7911   1.7360   -9.4749e+01
    36       3.6000e+03   -6.3902e+01   6.3813e-04    7.2842e+01
    37       3.7000e+03   -3.7277e+01   1.3682e-02   -1.6865e+02
    38       3.8000e+03   -6.8701e+01   3.6726e-04   -2.4230e+01
    39       3.9000e+03   -3.1149e+01   2.7705e-02    1.5062e+02
    40       4.0000e+03   -5.6176e+01   1.5531e-03   -1.6231e+02
    41       4.1000e+03   -3.2078e+01   2.4895e-02   -1.5156e+02
    42       4.2000e+03   -6.8314e+01   3.8397e-04    2.5021e+01
    43       4.3000e+03   -3.7153e+01   1.3878e-02    1.6691e+02
    44       4.4000e+03   -6.3668e+01   6.5553e-04   -7.9975e+01
    45       4.5000e+03    2.5876   1.3470   -9.6149e+01
    46       4.6000e+03   -6.3908e+01   6.3764e-04    7.2557e+01
    47       4.7000e+03   -3.7299e+01   1.3647e-02   -1.6886e+02
    48       4.8000e+03   -6.8608e+01   3.7119e-04   -2.4959e+01
    49       4.9000e+03   -3.1026e+01   2.8101e-02    1.5049e+02
    50       5.0000e+03   -5.6408e+01   1.5122e-03   -1.6798e+02
    51       5.1000e+03   -3.2183e+01   2.4595e-02   -1.5167e+02
    52       5.2000e+03   -6.8312e+01   3.8408e-04    2.4498e+01
    53       5.3000e+03   -3.7127e+01   1.3920e-02    1.6669e+02
    54       5.4000e+03   -6.3638e+01   6.5780e-04   -8.0327e+01
    55       5.5000e+03    0.8191   1.0989   -9.7533e+01
    56       5.6000e+03   -6.3905e+01   6.3789e-04    7.2117e+01
    57       5.7000e+03   -3.7319e+01   1.3616e-02   -1.6907e+02
    58       5.8000e+03   -6.8545e+01   3.7389e-04   -2.5685e+01
    59       5.9000e+03   -3.0900e+01   2.8509e-02    1.5036e+02
    60       6.0000e+03   -5.6535e+01   1.4902e-03   -1.7240e+02
    61       6.1000e+03   -3.2287e+01   2.4303e-02   -1.5179e+02
    62       6.2000e+03   -6.8292e+01   3.8496e-04    2.3977e+01
    63       6.3000e+03   -3.7102e+01   1.3960e-02    1.6647e+02
    64       6.4000e+03   -6.3607e+01   6.6019e-04   -8.0788e+01
    65       6.5000e+03   -0.6624   0.9266   -9.8903e+01
    66       6.6000e+03   -6.3894e+01   6.3870e-04    7.1532e+01
    67       6.7000e+03   -3.7337e+01   1.3588e-02   -1.6928e+02
    68       6.8000e+03   -6.8503e+01   3.7573e-04   -2.6423e+01
    69       6.9000e+03   -3.0773e+01   2.8931e-02    1.5022e+02
    70       7.0000e+03   -5.6613e+01   1.4769e-03   -1.7606e+02
    71       7.1000e+03   -3.2388e+01   2.4020e-02   -1.5190e+02
    72       7.2000e+03   -6.8264e+01   3.8621e-04    2.3377e+01
    73       7.3000e+03   -3.7078e+01   1.3999e-02    1.6625e+02
    74       7.4000e+03   -6.3578e+01   6.6240e-04   -8.1315e+01
    75       7.5000e+03   -1.9407   0.7998   -1.0026e+02
    76       7.6000e+03   -6.3883e+01   6.3952e-04    7.0806e+01
    77       7.7000e+03   -3.7354e+01   1.3562e-02   -1.6950e+02
    78       7.8000e+03   -6.8483e+01   3.7658e-04   -2.7196e+01
    79       7.9000e+03   -3.0644e+01   2.9365e-02    1.5009e+02
    80       8.0000e+03   -5.6666e+01   1.4680e-03   -1.7923e+02
    81       8.1000e+03   -3.2488e+01   2.3746e-02   -1.5202e+02
    82       8.2000e+03   -6.8239e+01   3.8732e-04    2.2689e+01
    83       8.3000e+03   -3.7054e+01   1.4037e-02    1.6603e+02
    84       8.4000e+03   -6.3555e+01   6.6410e-04   -8.1870e+01
    85       8.5000e+03   -3.0678   0.7024   -1.0160e+02
    86       8.6000e+03   -6.3878e+01   6.3991e-04    6.9949e+01
    87       8.7000e+03   -3.7370e+01   1.3536e-02   -1.6971e+02
    88       8.8000e+03   -6.8488e+01   3.7636e-04   -2.7967e+01
    89       8.9000e+03   -3.0512e+01   2.9812e-02    1.4995e+02
    90       9.0000e+03   -5.6707e+01   1.4610e-03    1.7792e+02
    91       9.1000e+03   -3.2586e+01   2.3479e-02   -1.5214e+02
    92       9.2000e+03   -6.8227e+01   3.8784e-04    2.1921e+01
    93       9.3000e+03   -3.7031e+01   1.4075e-02    1.6581e+02
    94       9.4000e+03   -6.3540e+01   6.6524e-04   -8.2417e+01
    95       9.5000e+03   -4.0785   0.6253   -1.0293e+02
    96       9.6000e+03   -6.3885e+01   6.3934e-04    6.8991e+01
    97       9.7000e+03   -3.7386e+01   1.3512e-02   -1.6993e+02
    98       9.8000e+03   -6.8521e+01   3.7494e-04   -2.8690e+01
    99       9.9000e+03   -3.0379e+01   3.0274e-02    1.4982e+02
   100       1.0000e+04   -5.6744e+01   1.4549e-03    1.7532e+02
   101       1.0100e+04   -3.2683e+01   2.3219e-02   -1.5226e+02
   102       1.0200e+04   -6.8236e+01   3.8744e-04    2.1131e+01
   103       1.0300e+04   -3.7008e+01   1.4112e-02    1.6559e+02
   104       1.0400e+04   -6.3532e+01   6.6589e-04   -8.2918e+01
   105       1.0500e+04   -4.9968   0.5625   -1.0424e+02
   106       1.0600e+04   -6.3911e+01   6.3749e-04    6.7975e+01
   107       1.0700e+04   -3.7401e+01   1.3489e-02   -1.7015e+02
   108       1.0800e+04   -6.8581e+01   3.7237e-04   -2.9297e+01
   109       1.0900e+04   -3.0242e+01   3.0752e-02    1.4968e+02
   110       1.1000e+04   -5.6780e+01   1.4488e-03    1.7290e+02
   111       1.1100e+04   -3.2779e+01   2.2965e-02   -1.5238e+02
   112       1.1200e+04   -6.8269e+01   3.8598e-04    2.0398e+01
   113       1.1300e+04   -3.6985e+01   1.4149e-02    1.6537e+02
   114       1.1400e+04   -6.3528e+01   6.6620e-04   -8.3349e+01
   115       1.1500e+04   -5.8403   0.5105   -1.0554e+02
   116       1.1600e+04   -6.3953e+01   6.3438e-04    6.6962e+01
   117       1.1700e+04   -3.7416e+01   1.3465e-02   -1.7036e+02
   118       1.1800e+04   -6.8662e+01   3.6890e-04   -2.9689e+01
   119       1.1900e+04   -3.0104e+01   3.1247e-02    1.4954e+02
   120       1.2000e+04   -5.6817e+01   1.4427e-03    1.7064e+02
   121       1.2100e+04   -3.2873e+01   2.2718e-02   -1.5251e+02
   122       1.2200e+04   -6.8315e+01   3.8391e-04    1.9812e+01
   123       1.2300e+04   -3.6962e+01   1.4187e-02    1.6517e+02
   124       1.2400e+04   -6.3523e+01   6.6655e-04   -8.3666e+01
   125       1.2500e+04   -6.6219   0.4666   -1.0681e+02
   126       1.2600e+04   -6.4010e+01   6.3026e-04    6.5978e+01
   127       1.2700e+04   -3.7430e+01   1.3443e-02   -1.7058e+02
   128       1.2800e+04   -6.8745e+01   3.6537e-04   -2.9802e+01
   129       1.2900e+04   -2.9963e+01   3.1759e-02    1.4940e+02
   130       1.3000e+04   -5.6856e+01   1.4362e-03    1.6850e+02
   131       1.3100e+04   -3.2966e+01   2.2475e-02   -1.5264e+02
   132       1.3200e+04   -6.8364e+01   3.8177e-04    1.9380e+01
   133       1.3300e+04   -3.6939e+01   1.4226e-02    1.6496e+02
   134       1.3400e+04   -6.3508e+01   6.6775e-04   -8.3864e+01
   135       1.3500e+04   -7.3518   0.4290   -1.0807e+02
   136       1.3600e+04   -6.4078e+01   6.2530e-04    6.5050e+01
   137       1.3700e+04   -3.7444e+01   1.3421e-02   -1.7079e+02
   138       1.3800e+04   -6.8810e+01   3.6265e-04   -2.9667e+01
   139       1.3900e+04   -2.9819e+01   3.2289e-02    1.4926e+02
   140       1.4000e+04   -5.6897e+01   1.4295e-03    1.6648e+02
   141       1.4100e+04   -3.3058e+01   2.2237e-02   -1.5276e+02
   142       1.4200e+04   -6.8406e+01   3.7992e-04    1.9077e+01
   143       1.4300e+04   -3.6914e+01   1.4266e-02    1.6477e+02
   144       1.4400e+04   -6.3471e+01   6.7055e-04   -8.3990e+01
   145       1.4500e+04   -8.0377   0.3964   -1.0931e+02
   146       1.4600e+04   -6.4157e+01   6.1969e-04    6.4213e+01
   147       1.4700e+04   -3.7457e+01   1.3401e-02   -1.7099e+02
   148       1.4800e+04   -6.8846e+01   3.6115e-04   -2.9388e+01
   149       1.4900e+04   -2.9672e+01   3.2839e-02    1.4911e+02
   150       1.5000e+04   -5.6934e+01   1.4233e-03    1.6458e+02
   151       1.5100e+04   -3.3149e+01   2.2005e-02   -1.5288e+02
   152       1.5200e+04   -6.8438e+01   3.7854e-04    1.8902e+01
   153       1.5300e+04   -3.6888e+01   1.4309e-02    1.6457e+02
   154       1.5400e+04   -6.3413e+01   6.7503e-04   -8.4118e+01
   155       1.5500e+04   -8.6857   0.3679   -1.1053e+02
   156       1.5600e+04   -6.4235e+01   6.1414e-04    6.3502e+01
   157       1.5700e+04   -3.7468e+01   1.3384e-02   -1.7120e+02
   158       1.5800e+04   -6.8851e+01   3.6095e-04   -2.9023e+01
   159       1.5900e+04   -2.9523e+01   3.3408e-02    1.4896e+02
   160       1.6000e+04   -5.6967e+01   1.4179e-03    1.6274e+02
   161       1.6100e+04   -3.3239e+01   2.1779e-02   -1.5300e+02
   162       1.6200e+04   -6.8446e+01   3.7820e-04    1.8828e+01
   163       1.6300e+04   -3.6861e+01   1.4354e-02    1.6438e+02
   164       1.6400e+04   -6.3338e+01   6.8090e-04   -8.4288e+01
   165       1.6500e+04   -9.3010   0.3427   -1.1172e+02
   166       1.6600e+04   -6.4301e+01   6.0945e-04    6.2886e+01
   167       1.6700e+04   -3.7478e+01   1.3369e-02   -1.7140e+02
   168       1.6800e+04   -6.8819e+01   3.6228e-04   -2.8648e+01
   169       1.6900e+04   -2.9371e+01   3.3996e-02    1.4880e+02
   170       1.7000e+04   -5.6995e+01   1.4133e-03    1.6094e+02
   171       1.7100e+04   -3.3327e+01   2.1559e-02   -1.5312e+02
   172       1.7200e+04   -6.8422e+01   3.7924e-04    1.8752e+01
   173       1.7300e+04   -3.6832e+01   1.4401e-02    1.6418e+02
   174       1.7400e+04   -6.3249e+01   6.8791e-04   -8.4521e+01
   175       1.7500e+04   -9.8874   0.3204   -1.1290e+02
   176       1.7600e+04   -6.4352e+01   6.0592e-04    6.2293e+01
   177       1.7700e+04   -3.7486e+01   1.3356e-02   -1.7161e+02
   178       1.7800e+04   -6.8751e+01   3.6511e-04   -2.8386e+01
   179       1.7900e+04   -2.9217e+01   3.4604e-02    1.4864e+02
   180       1.8000e+04   -5.7021e+01   1.4091e-03    1.5915e+02
   181       1.8100e+04   -3.3414e+01   2.1346e-02   -1.5323e+02
   182       1.8200e+04   -6.8373e+01   3.8138e-04    1.8544e+01
   183       1.8300e+04   -3.6803e+01   1.4449e-02    1.6398e+02
   184       1.8400e+04   -6.3150e+01   6.9583e-04   -8.4851e+01
   185       1.8500e+04   -1.0448e+01   0.3003   -1.1405e+02
   186       1.8600e+04   -6.4390e+01   6.0328e-04    6.1672e+01
   187       1.8700e+04   -3.7493e+01   1.3346e-02   -1.7182e+02
   188       1.8800e+04   -6.8666e+01   3.6874e-04   -2.8336e+01
   189       1.8900e+04   -2.9061e+01   3.5232e-02    1.4847e+02
   190       1.9000e+04   -5.7046e+01   1.4050e-03    1.5737e+02
   191       1.9100e+04   -3.3498e+01   2.1140e-02   -1.5335e+02
   192       1.9200e+04   -6.8315e+01   3.8391e-04    1.8163e+01
   193       1.9300e+04   -3.6773e+01   1.4499e-02    1.6378e+02
   194       1.9400e+04   -6.3050e+01   7.0387e-04   -8.5288e+01
   195       1.9500e+04   -1.0987e+01   0.2823   -1.1517e+02
   196       1.9600e+04   -6.4417e+01   6.0136e-04    6.0992e+01
   197       1.9700e+04   -3.7499e+01   1.3337e-02   -1.7204e+02
   198       1.9800e+04   -6.8580e+01   3.7237e-04   -2.8481e+01
   199       1.9900e+04   -2.8903e+01   3.5881e-02    1.4829e+02
   200       2.0000e+04   -5.7073e+01   1.4008e-03    1.5556e+02
  
 maxv=   9.90163328    at=   0.99603516
             from=   0.99000000    to=   1.00000000
 minv=  -9.62104762    at=   0.99303630
             from=   0.99000000    to=   1.00000000
 rmsv=   9.53974391  from=   0.99000000     to=   1.00000000
 maxi=   1.20263095    at=   0.99303630
             from=   0.99000000    to=   1.00000000
 mini=  -1.23770416    at=   0.99603516
             from=   0.99000000    to=   1.00000000
 rmsi=   1.19246799  from=   0.99000000     to=   1.00000000
 maxslew=   9.90163328    at=   0.99603516
             from=   0.99000000    to=   1.00000000
 minslew=  -9.62104762    at=   0.99303630
             from=   0.99000000    to=   1.00000000
 slew= 1.83048500e+06

          ***** job concluded
 ******  
 

 ****** job statistics summary tnom=  25.000 temp=  25.000 ******

  ******  Circuit Statistics  ******
  # nodes       =      53 # elements   =     100
  # resistors   =      36 # capacitors =      21 # inductors   =       5
  # mutual_inds =      10 # vccs       =       8 # vcvs        =       6
  # cccs        =       0 # ccvs       =       0 # volt_srcs   =       5
  # curr_srcs   =       0 # diodes     =       7 # bjts        =       2
  # jfets       =       0 # mosfets    =       0 # U elements  =       0
  # T elements  =       0 # W elements =       0 # B elements  =       0
  # S elements  =       0 # P elements =       0 # va device   =       0
  # vector_srcs =       0 # N elements =       0


  ******  Runtime Statistics (seconds)  ******

  analysis           time    # points   tot. iter  conv.iter
  op point           0.01           1         214
  ac analysis        0.03         601         601
  transient          6.25        1001      197273       64869 rev=      2396
  readin             0.01
  errchk             0.00
  setup              0.00
  output             0.00


           peak memory used         65.45 megabytes
           total cpu time            6.31 seconds
           total elapsed time        6.35 seconds
           job started at     13:25:35 07/24/2021
           job ended   at     13:25:47 07/24/2021
           job total runtime        12.54 seconds


  lic: Release hspice token(s) 
 lic: total license checkout elapse time:        0.02(s)
