$DATA1 SOURCE='HSPICE' VERSION='P-2019.06-SP1-1 win64' PARAM_COUNT=0
.TITLE '***amplificador de potencia valvulado'
 maxac            locut            hicut            temper          
 alter#          
   24.56850463      24.37045279      23.51970759      25.00000000   
1               
 -560.00000000    -560.00000000    -560.00000000      25.00000000   
2               
