Circuit: ***************************************

Warning: Multiple definitions of model "2scr375p" Type: BJT
Warning: Multiple definitions of model "bc857b" Type: BJT
Warning: Multiple definitions of model "bc847c" Type: BJT
Warning: Multiple definitions of model "bc847b" Type: BJT
Direct Newton iteration for .op point succeeded.
Changing Tseed to 1e-009
Heightened Def Con from 1.25934e-009 +++++++++++++to 4.50934e-009
Heightened Def Con from 9.16233e-009 ++++++++to 1.21623e-008
Heightened Def Con from 2.01503e-008 ++++++++to 2.36503e-008
Heightened Def Con from 2.65972e-008 ++++++to 2.70035e-008
Heightened Def Con from 2.70035e-008 ++to 2.73785e-008
Heightened Def Con from 2.73785e-008 +++to 2.75054e-008
Heightened Def Con from 2.75054e-008 to 2.77554e-008
Heightened Def Con from 2.79986e-008 to 2.99986e-008
N-Period=1
Fourier components of V(out)
DC component:-1.24231e-005

Harmonic	Frequency	 Fourier 	Normalized	 Phase  	Normalized
 Number 	  [Hz]   	Component	 Component	[degree]	Phase [deg]
    1   	1.000e+03	1.330e+01	1.000e+00	  179.33°	    0.00°
    2   	2.000e+03	2.539e-03	1.910e-04	   92.27°	  -87.07°
    3   	3.000e+03	4.102e-02	3.085e-03	  168.38°	  -10.95°
    4   	4.000e+03	3.957e-04	2.976e-05	   92.15°	  -87.18°
    5   	5.000e+03	7.398e-02	5.564e-03	   -5.62°	 -184.95°
    6   	6.000e+03	1.421e-05	1.069e-06	 -125.68°	 -305.01°
    7   	7.000e+03	1.304e-03	9.808e-05	  166.32°	  -13.01°
    8   	8.000e+03	1.035e-05	7.782e-07	   95.96°	  -83.37°
    9   	9.000e+03	2.551e-04	1.919e-05	    2.24°	 -177.10°
   10   	1.000e+04	2.794e-06	2.101e-07	   96.78°	  -82.55°
Total Harmonic Distortion: 0.636552%(0.636732%)



SPICE directive ".backanno" has no meaning for netlists.
output_power: AVG(i(rload)*v(out))=-11.0504 FROM 0 TO 0.01


Date: Thu Apr 17 18:55:00 2025
Total elapsed time: 8.360 seconds.

tnom = 27
temp = 27
method = modified trap
totiter = 574404
traniter = 574390
tranpoints = 200648
accept = 200136
rejected = 559
matrix size = 67
fillins = 88
solver = Normal
Thread vector: 29.0/17.0[2] 3.8/2.1[2] 5.2/2.4[2] 0.7/1.0[1]  2592/500
Matrix Compiler1: 12.74 KB object code size  3.0/1.8/[1.3]
Matrix Compiler2: 7.67 KB object code size  0.9/1.4/[0.8]

