Circuit: ***************************************

Warning: Multiple definitions of model "2scr375p" Type: BJT
Warning: Multiple definitions of model "bc857b" Type: BJT
Warning: Multiple definitions of model "bc847c" Type: BJT
Warning: Multiple definitions of model "bc847b" Type: BJT
Direct Newton iteration for .op point succeeded.
Changing Tseed to 1e-009
Heightened Def Con from 1.25934e-009 +++++++++++++to 4.50934e-009
Heightened Def Con from 9.16233e-009 ++++++++to 1.21623e-008
Heightened Def Con from 2.01503e-008 ++++++++to 2.36503e-008
Heightened Def Con from 2.65972e-008 ++++++to 2.70035e-008
Heightened Def Con from 2.70035e-008 ++to 2.73785e-008
Heightened Def Con from 2.73785e-008 +++to 2.75054e-008
Heightened Def Con from 2.75054e-008 to 2.77554e-008
Heightened Def Con from 2.79986e-008 to 2.99986e-008
Heightened Def Con from 0.527572 to 0.527572

Date: Thu Apr 17 21:56:20 2025
Total elapsed time: 2.522 seconds.

tnom = 27
temp = 27
method = modified trap
totiter = 156220
traniter = 156206
tranpoints = 53415
accept = 52891
rejected = 572
matrix size = 67
fillins = 88
solver = Normal
Thread vector: 25.5/13.1[2] 3.9/2.1[2] 5.0/2.7[2] 0.6/1.1[1]  2592/500
Matrix Compiler1: 12.74 KB object code size  3.8/2.0/[1.4]
Matrix Compiler2: 7.67 KB object code size  1.2/1.4/[0.8]

