Circuit: ***************************************

Warning: Multiple definitions of model "2scr375p" Type: BJT
Warning: Multiple definitions of model "bc857b" Type: BJT
Warning: Multiple definitions of model "bc847c" Type: BJT
Warning: Multiple definitions of model "bc847b" Type: BJT
Direct Newton iteration for .op point succeeded.
N-Period=1
Fourier components of V(out)
DC component:7.46945e-012

Harmonic	Frequency	 Fourier 	Normalized	 Phase  	Normalized
 Number 	  [Hz]   	Component	 Component	[degree]	Phase [deg]
    1   	1.000e+03	4.047e-05	1.000e+00	  174.59°	    0.00°
    2   	2.000e+03	1.930e-06	4.770e-02	  -93.85°	 -268.45°
    3   	3.000e+03	1.164e-06	2.877e-02	   -4.44°	 -179.04°
    4   	4.000e+03	5.458e-08	1.349e-03	   84.80°	  -89.80°
    5   	5.000e+03	1.201e-08	2.967e-04	  166.40°	   -8.20°
    6   	6.000e+03	5.962e-09	1.473e-04	 -121.73°	 -296.33°
    7   	7.000e+03	2.793e-09	6.901e-05	  -24.75°	 -199.35°
    8   	8.000e+03	1.091e-09	2.696e-05	  172.01°	   -2.58°
    9   	9.000e+03	1.531e-09	3.783e-05	  -43.96°	 -218.56°
   10   	1.000e+04	1.318e-09	3.257e-05	   92.02°	  -82.57°
Total Harmonic Distortion: 5.572140%(5.572164%)



output_power: RMS(i(rload)*v(out))=1.28502e-010 FROM 0 TO 0.01
vout_rms: RMS(v(out))=2.86612e-005 FROM 0 TO 0.01
vin_rms: RMS(v(v_in))=0.315972 FROM 0 TO 0.01
gain_rms: vout_rms/vin_rms=9.0708e-005


Date: Tue Apr 29 16:25:24 2025
Total elapsed time: 6.795 seconds.

tnom = 27
temp = 27
method = modified trap
totiter = 442351
traniter = 442321
tranpoints = 200033
accept = 200030
rejected = 3
matrix size = 67
fillins = 88
solver = Normal
Thread vector: 22.5/14.5[2] 4.2/2.8[2] 4.6/3.5[2] 0.5/1.1[1]  2592/500
Matrix Compiler1: 12.78 KB object code size  3.3/2.1/[1.3]
Matrix Compiler2: 7.67 KB object code size  1.3/1.4/[0.7]

