Circuit: ***************************************

Warning: Multiple definitions of model "2scr375p" Type: BJT
Warning: Multiple definitions of model "bc857b" Type: BJT
Warning: Multiple definitions of model "bc847c" Type: BJT
Warning: Multiple definitions of model "bc847b" Type: BJT
Direct Newton iteration for .op point succeeded.
N-Period=1
Fourier components of V(out)
DC component:-1.4071e-006

Harmonic	Frequency	 Fourier 	Normalized	 Phase  	Normalized
 Number 	  [Hz]   	Component	 Component	[degree]	Phase [deg]
    1   	1.000e+03	3.216e-02	1.000e+00	  177.82°	    0.00°
    2   	2.000e+03	3.013e-03	9.371e-02	   85.25°	  -92.56°
    3   	3.000e+03	5.608e-04	1.744e-02	   -7.03°	 -184.85°
    4   	4.000e+03	3.538e-05	1.100e-03	 -101.53°	 -279.34°
    5   	5.000e+03	3.919e-06	1.219e-04	  152.28°	  -25.53°
    6   	6.000e+03	1.535e-06	4.774e-05	 -118.93°	 -296.75°
    7   	7.000e+03	1.875e-06	5.832e-05	  133.08°	  -44.73°
    8   	8.000e+03	1.552e-06	4.826e-05	   49.71°	 -128.10°
    9   	9.000e+03	2.482e-07	7.718e-06	   21.73°	 -156.09°
   10   	1.000e+04	1.955e-06	6.081e-05	   42.87°	 -134.94°
Total Harmonic Distortion: 9.532177%(9.532192%)



output_power: RMS(i(rload)*v(out))=8.15208e-005 FROM 0 TO 0.01
vout_rms: RMS(v(out))=0.022841 FROM 0 TO 0.01
vin_rms: RMS(v(v_in))=0.315972 FROM 0 TO 0.01
gain_rms: vout_rms/vin_rms=0.072288


Date: Thu May 01 18:00:15 2025
Total elapsed time: 7.537 seconds.

tnom = 27
temp = 27
method = modified trap
totiter = 457777
traniter = 457762
tranpoints = 200036
accept = 200032
rejected = 4
matrix size = 67
fillins = 96
solver = Normal
Thread vector: 20.5/17.2[2] 3.0/2.8[1] 2.5/2.2[2] 0.5/1.1[1]  2592/500
Matrix Compiler1: 13.13 KB object code size  3.0/1.4/[1.0]
Matrix Compiler2: 7.88 KB object code size  0.8/0.9/[0.6]

