Circuit: ***************************************

Warning: Multiple definitions of model "2scr375p" Type: BJT
Warning: Multiple definitions of model "bc857b" Type: BJT
Warning: Multiple definitions of model "bc847c" Type: BJT
Warning: Multiple definitions of model "bc847b" Type: BJT
Direct Newton iteration for .op point succeeded.

gmax: MAX(mag(v(out)))=(-38.4114dB,0°) FROM 0.01 TO 1e+008
fchi=27987.5 FROM 0 TO 27987.5
fclo=7.31555 FROM 0 TO 7.31555
f20hz: v(out)=(-38.9053dB,-153.38°) at 20
f30hz: v(out)=(-38.6348dB,-162.071°) at 30
f40hz: v(out)=(-38.5371dB,-166.536°) at 40
f50hz: v(out)=(-38.4912dB,-169.261°) at 50.05
f70hz: v(out)=(-38.4513dB,-172.39°) at 70
f100hz: v(out)=(-38.4299dB,-174.793°) at 100
f200hz: v(out)=(-38.4146dB,-177.761°) at 200
f500hz: v(out)=(-38.4114dB,179.871°) at 500
f700hz: v(out)=(-38.4123dB,179.071°) at 700
f1000hz: v(out)=(-38.4149dB,178.105°) at 1000
f2000hz: v(out)=(-38.4312dB,175.396°) at 2000
f2122hz: v(out)=(-38.434dB,175.084°) at 2122
f5000hz: v(out)=(-38.5446dB,168.005°) at 5000
f7000hz: v(out)=(-38.6708dB,163.268°) at 7000
f10000hz: v(out)=(-38.9274dB,156.429°) at 10000
f20000hz: v(out)=(-40.1956dB,136.47°) at 20000


Date: Tue May 06 19:44:29 2025
Total elapsed time: 0.097 seconds.

tnom = 27
temp = 27
method = trap
totiter = 26
traniter = 0
tranpoints = 0
accept = 0
rejected = 0
matrix size = 67
fillins = 73
solver = Normal
Matrix Compiler1:     534 opcodes
Matrix Compiler2: 7.33 KB object code size
