Circuit: ***************************************

Warning: Multiple definitions of model "2scr375p" Type: BJT
Warning: Multiple definitions of model "bc857b" Type: BJT
Warning: Multiple definitions of model "bc847c" Type: BJT
Warning: Multiple definitions of model "bc847b" Type: BJT
Direct Newton iteration for .op point succeeded.
N-Period=1
Fourier components of V(out)
DC component:3.6216e-012

Harmonic	Frequency	 Fourier 	Normalized	 Phase  	Normalized
 Number 	  [Hz]   	Component	 Component	[degree]	Phase [deg]
    1   	1.000e+03	5.248e-07	1.000e+00	   87.95°	    0.00°
    2   	2.000e+03	1.054e-10	2.009e-04	  -69.00°	 -156.94°
    3   	3.000e+03	6.852e-11	1.306e-04	   76.13°	  -11.82°
    4   	4.000e+03	7.906e-12	1.507e-05	   94.91°	    6.96°
    5   	5.000e+03	7.211e-12	1.374e-05	   97.81°	    9.86°
    6   	6.000e+03	7.179e-12	1.368e-05	   99.00°	   11.05°
    7   	7.000e+03	7.160e-12	1.364e-05	  100.49°	   12.54°
    8   	8.000e+03	7.135e-12	1.360e-05	  101.98°	   14.03°
    9   	9.000e+03	7.107e-12	1.354e-05	  103.46°	   15.51°
   10   	1.000e+04	7.075e-12	1.348e-05	  104.94°	   17.00°
Total Harmonic Distortion: 0.024238%(0.029618%)



output_power: RMS(i(rload)*v(out))=2.10809e-014 FROM 0 TO 0.01
vout_rms: RMS(v(out))=3.71065e-007 FROM 0 TO 0.01
vin_rms: RMS(v(v_in))=0.315972 FROM 0 TO 0.01
gain_rms: vout_rms/vin_rms=1.17436e-006


Date: Tue Apr 29 19:16:12 2025
Total elapsed time: 6.738 seconds.

tnom = 27
temp = 27
method = modified trap
totiter = 400072
traniter = 400052
tranpoints = 200027
accept = 200026
rejected = 1
matrix size = 67
fillins = 98
solver = Normal
Thread vector: 21.9/14.6[2] 3.8/3.5[1] 3.5/3.0[2] 0.6/0.8[1]  2592/500
Matrix Compiler1: 13.24 KB object code size  3.1/1.8/[1.2]
Matrix Compiler2: 7.91 KB object code size  1.0/1.4/[0.7]

