Circuit: ***************************************

Warning: Multiple definitions of model "2scr375p" Type: BJT
Warning: Multiple definitions of model "bc857b" Type: BJT
Warning: Multiple definitions of model "bc847c" Type: BJT
Warning: Multiple definitions of model "bc847b" Type: BJT
Direct Newton iteration for .op point succeeded.

maxslew: MAX(v(out))=2.5866e-005 FROM 0 TO 0.01
minslew: MIN(v(out))=-2.06831e-005 FROM 0 TO 0.01
slew: D(v(out))=14.7898 at 1.70395e-007


Date: Tue Apr 29 19:16:14 2025
Total elapsed time: 0.828 seconds.

tnom = 27
temp = 27
method = modified trap
totiter = 35569
traniter = 35549
tranpoints = 17157
accept = 14476
rejected = 2681
matrix size = 67
fillins = 98
solver = Normal
Thread vector: 18.2/10.5[2] 3.0/2.4[2] 2.6/2.6[1] 0.6/1.2[1]  2592/500
Matrix Compiler1: 13.24 KB object code size  3.0/1.5/[1.1]
Matrix Compiler2: 7.91 KB object code size  0.8/1.1/[0.7]

