Questionable use of curly braces in "b2 amp 0 v={10m*ceil(time*100)-10m}"
    Error: undefined symbol in: "10m*ceil([time]*100)-10m"
Questionable use of curly braces in "b3 tref 0 v={1*time}"
    Error: undefined symbol in: "1*[time]"
Circuit: ***************************************

Warning: Multiple definitions of model "2scr375p" Type: BJT
Warning: Multiple definitions of model "bc857b" Type: BJT
Warning: Multiple definitions of model "bc847c" Type: BJT
Warning: Multiple definitions of model "bc847b" Type: BJT
WARNING: Less than two connections to node TREF.  This node is used by B3.
Direct Newton iteration failed to find .op point.  (Use ".option noopiter" to skip.)
Starting Gmin stepping
Gmin = 10
Gmin = 1.07374
Gmin = 0.115292
Gmin = 0.0123794
Gmin = 0.00132923
Gmin = 0.000142725
Gmin = 1.5325e-005
Gmin = 1.6455e-006
Gmin = 1.76685e-007
Gmin = 1.89714e-008
Gmin = 2.03704e-009
Gmin = 2.18725e-010
Gmin = 2.34854e-011
Gmin = 2.52173e-012
Gmin = 2.70769e-013
Gmin = 0
Gmin stepping succeeded in finding the operating point.

Changing Tseed to 1e-009
Heightened Def Con from 1e-009 to 1.00024e-009
Heightened Def Con from 1.00024e-009 to 1.25024e-009

min0: MIN(v(out))=-0.000483506 FROM 0 TO 0.01
max0: MAX(v(out))=4.87856e-005 FROM 0 TO 0.01
min1: MIN(v(out))=-0.427193 FROM 0.01 TO 0.02
max1: MAX(v(out))=0.432189 FROM 0.01 TO 0.02
min2: MIN(v(out))=-0.853757 FROM 0.02 TO 0.03
max2: MAX(v(out))=0.864424 FROM 0.02 TO 0.03
min3: MIN(v(out))=-1.27962 FROM 0.03 TO 0.04
max3: MAX(v(out))=1.29682 FROM 0.03 TO 0.04
min4: MIN(v(out))=-1.7041 FROM 0.04 TO 0.05
max4: MAX(v(out))=1.72758 FROM 0.04 TO 0.05
min5: MIN(v(out))=-2.12866 FROM 0.05 TO 0.06
max5: MAX(v(out))=2.16024 FROM 0.05 TO 0.06
min6: MIN(v(out))=-2.55243 FROM 0.06 TO 0.07
max6: MAX(v(out))=2.59762 FROM 0.06 TO 0.07
min7: MIN(v(out))=-2.97537 FROM 0.07 TO 0.08
max7: MAX(v(out))=3.03159 FROM 0.07 TO 0.08
min8: MIN(v(out))=-3.40021 FROM 0.08 TO 0.09
max8: MAX(v(out))=3.46578 FROM 0.08 TO 0.09
min9: MIN(v(out))=-3.82157 FROM 0.09 TO 0.1
max9: MAX(v(out))=3.89347 FROM 0.09 TO 0.1
min10: MIN(v(out))=-4.24196 FROM 0.1 TO 0.11
max10: MAX(v(out))=4.32718 FROM 0.1 TO 0.11
min11: MIN(v(out))=-4.66133 FROM 0.11 TO 0.12
max11: MAX(v(out))=4.76092 FROM 0.11 TO 0.12
min12: MIN(v(out))=-5.07968 FROM 0.12 TO 0.13
max12: MAX(v(out))=5.19464 FROM 0.12 TO 0.13
min13: MIN(v(out))=-5.49695 FROM 0.13 TO 0.14
max13: MAX(v(out))=5.62825 FROM 0.13 TO 0.14
min14: MIN(v(out))=-5.91313 FROM 0.14 TO 0.15
max14: MAX(v(out))=6.06168 FROM 0.14 TO 0.15
min15: MIN(v(out))=-6.32818 FROM 0.15 TO 0.16
max15: MAX(v(out))=6.49485 FROM 0.15 TO 0.16
min16: MIN(v(out))=-6.7372 FROM 0.16 TO 0.17
max16: MAX(v(out))=6.92768 FROM 0.16 TO 0.17
min17: MIN(v(out))=-7.14965 FROM 0.17 TO 0.18
max17: MAX(v(out))=7.3601 FROM 0.17 TO 0.18
min18: MIN(v(out))=-7.56087 FROM 0.18 TO 0.19
max18: MAX(v(out))=7.79201 FROM 0.18 TO 0.19
min19: MIN(v(out))=-7.97086 FROM 0.19 TO 0.2
max19: MAX(v(out))=8.22334 FROM 0.19 TO 0.2
min20: MIN(v(out))=-8.37956 FROM 0.2 TO 0.21
max20: MAX(v(out))=8.65399 FROM 0.2 TO 0.21
min21: MIN(v(out))=-8.78696 FROM 0.21 TO 0.22
max21: MAX(v(out))=9.08387 FROM 0.21 TO 0.22
min22: MIN(v(out))=-9.19301 FROM 0.22 TO 0.23
max22: MAX(v(out))=9.5129 FROM 0.22 TO 0.23
min23: MIN(v(out))=-9.60452 FROM 0.23 TO 0.24
max23: MAX(v(out))=9.94098 FROM 0.23 TO 0.24
min24: MIN(v(out))=-10.008 FROM 0.24 TO 0.25
max24: MAX(v(out))=10.368 FROM 0.24 TO 0.25
min25: MIN(v(out))=-10.4101 FROM 0.25 TO 0.26
max25: MAX(v(out))=10.7939 FROM 0.25 TO 0.26
min26: MIN(v(out))=-10.8106 FROM 0.26 TO 0.27
max26: MAX(v(out))=11.2377 FROM 0.26 TO 0.27
min27: MIN(v(out))=-11.2094 FROM 0.27 TO 0.28
max27: MAX(v(out))=11.6419 FROM 0.27 TO 0.28
min28: MIN(v(out))=-11.6065 FROM 0.28 TO 0.29
max28: MAX(v(out))=12.0637 FROM 0.28 TO 0.29
min29: MIN(v(out))=-11.9819 FROM 0.29 TO 0.3
max29: MAX(v(out))=12.484 FROM 0.29 TO 0.3
min30: MIN(v(out))=-12.3745 FROM 0.3 TO 0.31
max30: MAX(v(out))=12.9026 FROM 0.3 TO 0.31
min31: MIN(v(out))=-12.7653 FROM 0.31 TO 0.32
max31: MAX(v(out))=13.3195 FROM 0.31 TO 0.32
min32: MIN(v(out))=-13.1544 FROM 0.32 TO 0.33
max32: MAX(v(out))=13.7344 FROM 0.32 TO 0.33
min33: MIN(v(out))=-13.5418 FROM 0.33 TO 0.34
max33: MAX(v(out))=14.1472 FROM 0.33 TO 0.34
min34: MIN(v(out))=-13.9272 FROM 0.34 TO 0.35
max34: MAX(v(out))=14.5823 FROM 0.34 TO 0.35
min35: MIN(v(out))=-14.3108 FROM 0.35 TO 0.36
max35: MAX(v(out))=14.9912 FROM 0.35 TO 0.36
min36: MIN(v(out))=-14.7154 FROM 0.36 TO 0.37
max36: MAX(v(out))=15.3977 FROM 0.36 TO 0.37
min37: MIN(v(out))=-15.0954 FROM 0.37 TO 0.38
max37: MAX(v(out))=15.8015 FROM 0.37 TO 0.38
min38: MIN(v(out))=-15.4731 FROM 0.38 TO 0.39
max38: MAX(v(out))=16.2026 FROM 0.38 TO 0.39
min39: MIN(v(out))=-15.8485 FROM 0.39 TO 0.4
max39: MAX(v(out))=16.6007 FROM 0.39 TO 0.4
min40: MIN(v(out))=-16.2215 FROM 0.4 TO 0.41
max40: MAX(v(out))=16.9956 FROM 0.4 TO 0.41
min41: MIN(v(out))=-16.5666 FROM 0.41 TO 0.42
max41: MAX(v(out))=17.3873 FROM 0.41 TO 0.42
min42: MIN(v(out))=-16.934 FROM 0.42 TO 0.43
max42: MAX(v(out))=17.7754 FROM 0.42 TO 0.43
min43: MIN(v(out))=-17.2986 FROM 0.43 TO 0.44
max43: MAX(v(out))=18.1597 FROM 0.43 TO 0.44
min44: MIN(v(out))=-17.6603 FROM 0.44 TO 0.45
max44: MAX(v(out))=18.54 FROM 0.44 TO 0.45
min45: MIN(v(out))=-18.0189 FROM 0.45 TO 0.46
max45: MAX(v(out))=18.916 FROM 0.45 TO 0.46
min46: MIN(v(out))=-18.4014 FROM 0.46 TO 0.47
max46: MAX(v(out))=19.2873 FROM 0.46 TO 0.47
min47: MIN(v(out))=-18.7536 FROM 0.47 TO 0.48
max47: MAX(v(out))=19.6536 FROM 0.47 TO 0.48
min48: MIN(v(out))=-19.1021 FROM 0.48 TO 0.49
max48: MAX(v(out))=20.0137 FROM 0.48 TO 0.49
min49: MIN(v(out))=-19.4467 FROM 0.49 TO 0.5
max49: MAX(v(out))=20.3709 FROM 0.49 TO 0.5
min50: MIN(v(out))=-19.7593 FROM 0.5 TO 0.51
max50: MAX(v(out))=20.7211 FROM 0.5 TO 0.51
min51: MIN(v(out))=-20.0953 FROM 0.51 TO 0.52
max51: MAX(v(out))=21.0651 FROM 0.51 TO 0.52
min52: MIN(v(out))=-20.4268 FROM 0.52 TO 0.53
max52: MAX(v(out))=21.4027 FROM 0.52 TO 0.53
min53: MIN(v(out))=-20.7532 FROM 0.53 TO 0.54
max53: MAX(v(out))=21.7332 FROM 0.53 TO 0.54
min54: MIN(v(out))=-21.1023 FROM 0.54 TO 0.55
max54: MAX(v(out))=22.0564 FROM 0.54 TO 0.55
min55: MIN(v(out))=-21.4178 FROM 0.55 TO 0.56
max55: MAX(v(out))=22.3432 FROM 0.55 TO 0.56
min56: MIN(v(out))=-21.7274 FROM 0.56 TO 0.57
max56: MAX(v(out))=22.6785 FROM 0.56 TO 0.57
min57: MIN(v(out))=-22.0306 FROM 0.57 TO 0.58
max57: MAX(v(out))=22.9765 FROM 0.57 TO 0.58
min58: MIN(v(out))=-22.3271 FROM 0.58 TO 0.59
max58: MAX(v(out))=23.2384 FROM 0.58 TO 0.59
min59: MIN(v(out))=-22.6138 FROM 0.59 TO 0.6
max59: MAX(v(out))=23.547 FROM 0.59 TO 0.6
min60: MIN(v(out))=-22.8976 FROM 0.6 TO 0.61
max60: MAX(v(out))=23.8409 FROM 0.6 TO 0.61
min61: MIN(v(out))=-23.1677 FROM 0.61 TO 0.62
max61: MAX(v(out))=23.9377 FROM 0.61 TO 0.62
min62: MIN(v(out))=-23.4291 FROM 0.62 TO 0.63
max62: MAX(v(out))=23.9984 FROM 0.62 TO 0.63
min63: MIN(v(out))=-23.684 FROM 0.63 TO 0.64
max63: MAX(v(out))=24.0573 FROM 0.63 TO 0.64
min64: MIN(v(out))=-23.9298 FROM 0.64 TO 0.65
max64: MAX(v(out))=24.1142 FROM 0.64 TO 0.65
min65: MIN(v(out))=-24.1363 FROM 0.65 TO 0.66
max65: MAX(v(out))=24.1761 FROM 0.65 TO 0.66
min66: MIN(v(out))=-24.3905 FROM 0.66 TO 0.67
max66: MAX(v(out))=24.2375 FROM 0.66 TO 0.67
min67: MIN(v(out))=-24.6011 FROM 0.67 TO 0.68
max67: MAX(v(out))=24.2973 FROM 0.67 TO 0.68
min68: MIN(v(out))=-24.7976 FROM 0.68 TO 0.69
max68: MAX(v(out))=24.3558 FROM 0.68 TO 0.69
min69: MIN(v(out))=-24.9955 FROM 0.69 TO 0.7
max69: MAX(v(out))=24.4126 FROM 0.69 TO 0.7
min70: MIN(v(out))=-25.1758 FROM 0.7 TO 0.71
max70: MAX(v(out))=24.4662 FROM 0.7 TO 0.71
min71: MIN(v(out))=-25.342 FROM 0.71 TO 0.72
max71: MAX(v(out))=24.5212 FROM 0.71 TO 0.72
min72: MIN(v(out))=-25.5335 FROM 0.72 TO 0.73
max72: MAX(v(out))=24.5651 FROM 0.72 TO 0.73
min73: MIN(v(out))=-25.6396 FROM 0.73 TO 0.74
max73: MAX(v(out))=24.6214 FROM 0.73 TO 0.74
min74: MIN(v(out))=-25.6667 FROM 0.74 TO 0.75
max74: MAX(v(out))=24.6711 FROM 0.74 TO 0.75
min75: MIN(v(out))=-25.6897 FROM 0.75 TO 0.76
max75: MAX(v(out))=24.7162 FROM 0.75 TO 0.76
min76: MIN(v(out))=-25.6893 FROM 0.76 TO 0.77
max76: MAX(v(out))=24.7641 FROM 0.76 TO 0.77
min77: MIN(v(out))=-25.7037 FROM 0.77 TO 0.78
max77: MAX(v(out))=24.8057 FROM 0.77 TO 0.78
min78: MIN(v(out))=-25.72 FROM 0.78 TO 0.79
max78: MAX(v(out))=24.8509 FROM 0.78 TO 0.79
min79: MIN(v(out))=-25.7323 FROM 0.79 TO 0.8
max79: MAX(v(out))=24.8939 FROM 0.79 TO 0.8
min80: MIN(v(out))=-25.7447 FROM 0.8 TO 0.81
max80: MAX(v(out))=24.9316 FROM 0.8 TO 0.81
min81: MIN(v(out))=-25.7521 FROM 0.81 TO 0.82
max81: MAX(v(out))=24.9732 FROM 0.81 TO 0.82
min82: MIN(v(out))=-25.7636 FROM 0.82 TO 0.83
max82: MAX(v(out))=25.0078 FROM 0.82 TO 0.83
min83: MIN(v(out))=-25.7769 FROM 0.83 TO 0.84
max83: MAX(v(out))=25.0453 FROM 0.83 TO 0.84
min84: MIN(v(out))=-25.7881 FROM 0.84 TO 0.85
max84: MAX(v(out))=25.0769 FROM 0.84 TO 0.85
min85: MIN(v(out))=-25.8007 FROM 0.85 TO 0.86
max85: MAX(v(out))=25.1097 FROM 0.85 TO 0.86
min86: MIN(v(out))=-25.8045 FROM 0.86 TO 0.87
max86: MAX(v(out))=25.142 FROM 0.86 TO 0.87
min87: MIN(v(out))=-25.81 FROM 0.87 TO 0.88
max87: MAX(v(out))=25.1699 FROM 0.87 TO 0.88
min88: MIN(v(out))=-25.8168 FROM 0.88 TO 0.89
max88: MAX(v(out))=25.1993 FROM 0.88 TO 0.89
min89: MIN(v(out))=-25.8232 FROM 0.89 TO 0.9
max89: MAX(v(out))=25.2169 FROM 0.89 TO 0.9
min90: MIN(v(out))=-25.8324 FROM 0.9 TO 0.91
max90: MAX(v(out))=25.2434 FROM 0.9 TO 0.91
min91: MIN(v(out))=-25.8339 FROM 0.91 TO 0.92
max91: MAX(v(out))=25.2701 FROM 0.91 TO 0.92
min92: MIN(v(out))=-25.8399 FROM 0.92 TO 0.93
max92: MAX(v(out))=25.2956 FROM 0.92 TO 0.93
min93: MIN(v(out))=-25.8437 FROM 0.93 TO 0.94
max93: MAX(v(out))=25.3166 FROM 0.93 TO 0.94
min94: MIN(v(out))=-25.8481 FROM 0.94 TO 0.95
max94: MAX(v(out))=25.3489 FROM 0.94 TO 0.95
min95: MIN(v(out))=-25.8546 FROM 0.95 TO 0.96
max95: MAX(v(out))=25.3579 FROM 0.95 TO 0.96
min96: MIN(v(out))=-25.8578 FROM 0.96 TO 0.97
max96: MAX(v(out))=25.3904 FROM 0.96 TO 0.97
min97: MIN(v(out))=-25.8599 FROM 0.97 TO 0.98
max97: MAX(v(out))=25.4084 FROM 0.97 TO 0.98
min98: MIN(v(out))=-25.8635 FROM 0.98 TO 0.99
max98: MAX(v(out))=25.4278 FROM 0.98 TO 0.99
min99: MIN(v(out))=-25.8681 FROM 0.99 TO 1
max99: MAX(v(out))=25.4412 FROM 0.99 TO 1
min100: MIN(v(out))=-25.8704 FROM 1 TO 1.01
max100: MAX(v(out))=25.4613 FROM 1 TO 1.01


Date: Sat May 03 09:40:44 2025
Total elapsed time: 6.089 seconds.

tnom = 27
temp = 27
method = modified trap
totiter = 310917
traniter = 310486
tranpoints = 118994
accept = 112390
rejected = 6605
matrix size = 71
fillins = 88
solver = Normal
Thread vector: 22.1/17.8[2] 2.8/2.6[1] 5.2/4.3[2] 0.5/1.1[1]  2592/500
Matrix Compiler1: 12.68 KB object code size  2.8/1.4/[1.2]
Matrix Compiler2: 7.87 KB object code size  1.5/1.7/[0.7]

