Questionable use of curly braces in "b2 amp 0 v={10m*ceil(time*500)-10m}"
    Error: undefined symbol in: "10m*ceil([time]*500)-10m"
Questionable use of curly braces in "b3 tref 0 v={1*time}"
    Error: undefined symbol in: "1*[time]"
Circuit: ***************************************

Warning: Multiple definitions of model "2scr375p" Type: BJT
Warning: Multiple definitions of model "bc857b" Type: BJT
Warning: Multiple definitions of model "bc847c" Type: BJT
Warning: Multiple definitions of model "bc847b" Type: BJT
WARNING: Less than two connections to node TREF.  This node is used by B3.
Direct Newton iteration for .op point succeeded.
Changing Tseed to 1e-009
Heightened Def Con from 1e-009 +++++++++++++++++++++++to 2.92187e-009
Heightened Def Con from 3.01991e-009 to 3.26991e-009
Heightened Def Con from 3.26991e-009 to 3.39491e-009

min0: MIN(v(out))=-0.012493 FROM 0 TO 0.002
max0: MAX(v(out))=3.92367e-005 FROM 0 TO 0.002
min1: MIN(v(out))=-0.259467 FROM 0.002 TO 0.004
max1: MAX(v(out))=0.261504 FROM 0.002 TO 0.004
min2: MIN(v(out))=-0.518982 FROM 0.004 TO 0.006
max2: MAX(v(out))=0.523431 FROM 0.004 TO 0.006
min3: MIN(v(out))=-0.777875 FROM 0.006 TO 0.008
max3: MAX(v(out))=0.784732 FROM 0.006 TO 0.008
min4: MIN(v(out))=-1.0374 FROM 0.008 TO 0.01
max4: MAX(v(out))=1.04504 FROM 0.008 TO 0.01
min5: MIN(v(out))=-1.29644 FROM 0.01 TO 0.012
max5: MAX(v(out))=1.30622 FROM 0.01 TO 0.012
min6: MIN(v(out))=-1.55531 FROM 0.012 TO 0.014
max6: MAX(v(out))=1.56711 FROM 0.012 TO 0.014
min7: MIN(v(out))=-1.81135 FROM 0.014 TO 0.016
max7: MAX(v(out))=1.8278 FROM 0.014 TO 0.016
min8: MIN(v(out))=-2.06941 FROM 0.016 TO 0.018
max8: MAX(v(out))=2.08825 FROM 0.016 TO 0.018
min9: MIN(v(out))=-2.32718 FROM 0.018 TO 0.02
max9: MAX(v(out))=2.34842 FROM 0.018 TO 0.02
min10: MIN(v(out))=-2.58464 FROM 0.02 TO 0.022
max10: MAX(v(out))=2.60827 FROM 0.02 TO 0.022
min11: MIN(v(out))=-2.84175 FROM 0.022 TO 0.024
max11: MAX(v(out))=2.86777 FROM 0.022 TO 0.024
min12: MIN(v(out))=-3.09847 FROM 0.024 TO 0.026
max12: MAX(v(out))=3.12688 FROM 0.024 TO 0.026
min13: MIN(v(out))=-3.35476 FROM 0.026 TO 0.028
max13: MAX(v(out))=3.38556 FROM 0.026 TO 0.028
min14: MIN(v(out))=-3.61059 FROM 0.028 TO 0.03
max14: MAX(v(out))=3.64377 FROM 0.028 TO 0.03
min15: MIN(v(out))=-3.86591 FROM 0.03 TO 0.032
max15: MAX(v(out))=3.90147 FROM 0.03 TO 0.032
min16: MIN(v(out))=-4.12068 FROM 0.032 TO 0.034
max16: MAX(v(out))=4.15862 FROM 0.032 TO 0.034
min17: MIN(v(out))=-4.37487 FROM 0.034 TO 0.036
max17: MAX(v(out))=4.41518 FROM 0.034 TO 0.036
min18: MIN(v(out))=-4.62843 FROM 0.036 TO 0.038
max18: MAX(v(out))=4.6711 FROM 0.036 TO 0.038
min19: MIN(v(out))=-4.88131 FROM 0.038 TO 0.04
max19: MAX(v(out))=4.92634 FROM 0.038 TO 0.04
min20: MIN(v(out))=-5.13348 FROM 0.04 TO 0.042
max20: MAX(v(out))=5.18085 FROM 0.04 TO 0.042
min21: MIN(v(out))=-5.38487 FROM 0.042 TO 0.044
max21: MAX(v(out))=5.43458 FROM 0.042 TO 0.044
min22: MIN(v(out))=-5.63546 FROM 0.044 TO 0.046
max22: MAX(v(out))=5.68748 FROM 0.044 TO 0.046
min23: MIN(v(out))=-5.88517 FROM 0.046 TO 0.048
max23: MAX(v(out))=5.9395 FROM 0.046 TO 0.048
min24: MIN(v(out))=-6.13397 FROM 0.048 TO 0.05
max24: MAX(v(out))=6.19058 FROM 0.048 TO 0.05
min25: MIN(v(out))=-6.39133 FROM 0.05 TO 0.052
max25: MAX(v(out))=6.44066 FROM 0.05 TO 0.052
min26: MIN(v(out))=-6.63846 FROM 0.052 TO 0.054
max26: MAX(v(out))=6.68969 FROM 0.052 TO 0.054
min27: MIN(v(out))=-6.8845 FROM 0.054 TO 0.056
max27: MAX(v(out))=6.9478 FROM 0.054 TO 0.056
min28: MIN(v(out))=-7.12937 FROM 0.056 TO 0.058
max28: MAX(v(out))=7.19485 FROM 0.056 TO 0.058
min29: MIN(v(out))=-7.37301 FROM 0.058 TO 0.06
max29: MAX(v(out))=7.44062 FROM 0.058 TO 0.06
min30: MIN(v(out))=-7.61535 FROM 0.06 TO 0.062
max30: MAX(v(out))=7.68506 FROM 0.06 TO 0.062
min31: MIN(v(out))=-7.85632 FROM 0.062 TO 0.064
max31: MAX(v(out))=7.92808 FROM 0.062 TO 0.064
min32: MIN(v(out))=-8.09583 FROM 0.064 TO 0.066
max32: MAX(v(out))=8.16959 FROM 0.064 TO 0.066
min33: MIN(v(out))=-8.33379 FROM 0.066 TO 0.068
max33: MAX(v(out))=8.4095 FROM 0.066 TO 0.068
min34: MIN(v(out))=-8.57012 FROM 0.068 TO 0.07
max34: MAX(v(out))=8.64771 FROM 0.068 TO 0.07
min35: MIN(v(out))=-8.80472 FROM 0.07 TO 0.072
max35: MAX(v(out))=8.88414 FROM 0.07 TO 0.072
min36: MIN(v(out))=-9.03749 FROM 0.072 TO 0.074
max36: MAX(v(out))=9.11865 FROM 0.072 TO 0.074
min37: MIN(v(out))=-9.26831 FROM 0.074 TO 0.076
max37: MAX(v(out))=9.35114 FROM 0.074 TO 0.076
min38: MIN(v(out))=-9.49707 FROM 0.076 TO 0.078
max38: MAX(v(out))=9.58148 FROM 0.076 TO 0.078
min39: MIN(v(out))=-9.72363 FROM 0.078 TO 0.08
max39: MAX(v(out))=9.80954 FROM 0.078 TO 0.08
min40: MIN(v(out))=-9.94788 FROM 0.08 TO 0.082
max40: MAX(v(out))=10.0352 FROM 0.08 TO 0.082
min41: MIN(v(out))=-10.1697 FROM 0.082 TO 0.084
max41: MAX(v(out))=10.2582 FROM 0.082 TO 0.084
min42: MIN(v(out))=-10.3888 FROM 0.084 TO 0.086
max42: MAX(v(out))=10.4785 FROM 0.084 TO 0.086
min43: MIN(v(out))=-10.6052 FROM 0.086 TO 0.088
max43: MAX(v(out))=10.6959 FROM 0.086 TO 0.088
min44: MIN(v(out))=-10.8186 FROM 0.088 TO 0.09
max44: MAX(v(out))=10.9102 FROM 0.088 TO 0.09
min45: MIN(v(out))=-11.0288 FROM 0.09 TO 0.092
max45: MAX(v(out))=11.1212 FROM 0.09 TO 0.092
min46: MIN(v(out))=-11.2357 FROM 0.092 TO 0.094
max46: MAX(v(out))=11.3287 FROM 0.092 TO 0.094
min47: MIN(v(out))=-11.4388 FROM 0.094 TO 0.096
max47: MAX(v(out))=11.5325 FROM 0.094 TO 0.096
min48: MIN(v(out))=-11.638 FROM 0.096 TO 0.098
max48: MAX(v(out))=11.7323 FROM 0.096 TO 0.098
min49: MIN(v(out))=-11.8333 FROM 0.098 TO 0.1
max49: MAX(v(out))=11.928 FROM 0.098 TO 0.1
min50: MIN(v(out))=-12.0244 FROM 0.1 TO 0.102
max50: MAX(v(out))=12.1192 FROM 0.1 TO 0.102
min51: MIN(v(out))=-12.2111 FROM 0.102 TO 0.104
max51: MAX(v(out))=12.3055 FROM 0.102 TO 0.104
min52: MIN(v(out))=-12.3932 FROM 0.104 TO 0.106
max52: MAX(v(out))=12.4861 FROM 0.104 TO 0.106
min53: MIN(v(out))=-12.573 FROM 0.106 TO 0.108
max53: MAX(v(out))=12.6233 FROM 0.106 TO 0.108
min54: MIN(v(out))=-12.7369 FROM 0.108 TO 0.11
max54: MAX(v(out))=12.7046 FROM 0.108 TO 0.11
min55: MIN(v(out))=-12.8408 FROM 0.11 TO 0.112
max55: MAX(v(out))=12.7742 FROM 0.11 TO 0.112
min56: MIN(v(out))=-12.9135 FROM 0.112 TO 0.114
max56: MAX(v(out))=12.838 FROM 0.112 TO 0.114
min57: MIN(v(out))=-12.9771 FROM 0.114 TO 0.116
max57: MAX(v(out))=12.8975 FROM 0.114 TO 0.116
min58: MIN(v(out))=-13.0354 FROM 0.116 TO 0.118
max58: MAX(v(out))=12.9539 FROM 0.116 TO 0.118
min59: MIN(v(out))=-13.0897 FROM 0.118 TO 0.12
max59: MAX(v(out))=13.0073 FROM 0.118 TO 0.12
min60: MIN(v(out))=-13.1396 FROM 0.12 TO 0.122
max60: MAX(v(out))=13.0579 FROM 0.12 TO 0.122
min61: MIN(v(out))=-13.1877 FROM 0.122 TO 0.124
max61: MAX(v(out))=13.1054 FROM 0.122 TO 0.124
min62: MIN(v(out))=-13.2335 FROM 0.124 TO 0.126
max62: MAX(v(out))=13.1523 FROM 0.124 TO 0.126
min63: MIN(v(out))=-13.2768 FROM 0.126 TO 0.128
max63: MAX(v(out))=13.1961 FROM 0.126 TO 0.128
min64: MIN(v(out))=-13.3171 FROM 0.128 TO 0.13
max64: MAX(v(out))=13.2371 FROM 0.128 TO 0.13
min65: MIN(v(out))=-13.355 FROM 0.13 TO 0.132
max65: MAX(v(out))=13.2765 FROM 0.13 TO 0.132
min66: MIN(v(out))=-13.391 FROM 0.132 TO 0.134
max66: MAX(v(out))=13.314 FROM 0.132 TO 0.134
min67: MIN(v(out))=-13.4254 FROM 0.134 TO 0.136
max67: MAX(v(out))=13.3505 FROM 0.134 TO 0.136
min68: MIN(v(out))=-13.4576 FROM 0.136 TO 0.138
max68: MAX(v(out))=13.3846 FROM 0.136 TO 0.138
min69: MIN(v(out))=-13.4879 FROM 0.138 TO 0.14
max69: MAX(v(out))=13.4162 FROM 0.138 TO 0.14
min70: MIN(v(out))=-13.5163 FROM 0.14 TO 0.142
max70: MAX(v(out))=13.4473 FROM 0.14 TO 0.142
min71: MIN(v(out))=-13.5436 FROM 0.142 TO 0.144
max71: MAX(v(out))=13.476 FROM 0.142 TO 0.144
min72: MIN(v(out))=-13.5689 FROM 0.144 TO 0.146
max72: MAX(v(out))=13.5038 FROM 0.144 TO 0.146
min73: MIN(v(out))=-13.5931 FROM 0.146 TO 0.148
max73: MAX(v(out))=13.5299 FROM 0.146 TO 0.148
min74: MIN(v(out))=-13.6159 FROM 0.148 TO 0.15
max74: MAX(v(out))=13.5547 FROM 0.148 TO 0.15
min75: MIN(v(out))=-13.6367 FROM 0.15 TO 0.152
max75: MAX(v(out))=13.5781 FROM 0.15 TO 0.152
min76: MIN(v(out))=-13.6576 FROM 0.152 TO 0.154
max76: MAX(v(out))=13.6005 FROM 0.152 TO 0.154
min77: MIN(v(out))=-13.6768 FROM 0.154 TO 0.156
max77: MAX(v(out))=13.6209 FROM 0.154 TO 0.156
min78: MIN(v(out))=-13.6947 FROM 0.156 TO 0.158
max78: MAX(v(out))=13.6414 FROM 0.156 TO 0.158
min79: MIN(v(out))=-13.7117 FROM 0.158 TO 0.16
max79: MAX(v(out))=13.6597 FROM 0.158 TO 0.16
min80: MIN(v(out))=-13.7277 FROM 0.16 TO 0.162
max80: MAX(v(out))=13.6777 FROM 0.16 TO 0.162
min81: MIN(v(out))=-13.7427 FROM 0.162 TO 0.164
max81: MAX(v(out))=13.6946 FROM 0.162 TO 0.164
min82: MIN(v(out))=-13.7572 FROM 0.164 TO 0.166
max82: MAX(v(out))=13.7102 FROM 0.164 TO 0.166
min83: MIN(v(out))=-13.7711 FROM 0.166 TO 0.168
max83: MAX(v(out))=13.7255 FROM 0.166 TO 0.168
min84: MIN(v(out))=-13.7839 FROM 0.168 TO 0.17
max84: MAX(v(out))=13.7396 FROM 0.168 TO 0.17
min85: MIN(v(out))=-13.796 FROM 0.17 TO 0.172
max85: MAX(v(out))=13.7527 FROM 0.17 TO 0.172
min86: MIN(v(out))=-13.8075 FROM 0.172 TO 0.174
max86: MAX(v(out))=13.7654 FROM 0.172 TO 0.174
min87: MIN(v(out))=-13.8186 FROM 0.174 TO 0.176
max87: MAX(v(out))=13.7776 FROM 0.174 TO 0.176
min88: MIN(v(out))=-13.8288 FROM 0.176 TO 0.178
max88: MAX(v(out))=13.7888 FROM 0.176 TO 0.178
min89: MIN(v(out))=-13.8388 FROM 0.178 TO 0.18
max89: MAX(v(out))=13.7994 FROM 0.178 TO 0.18
min90: MIN(v(out))=-13.8482 FROM 0.18 TO 0.182
max90: MAX(v(out))=13.8093 FROM 0.18 TO 0.182
min91: MIN(v(out))=-13.857 FROM 0.182 TO 0.184
max91: MAX(v(out))=13.8188 FROM 0.182 TO 0.184
min92: MIN(v(out))=-13.8655 FROM 0.184 TO 0.186
max92: MAX(v(out))=13.8277 FROM 0.184 TO 0.186
min93: MIN(v(out))=-13.8737 FROM 0.186 TO 0.188
max93: MAX(v(out))=13.8362 FROM 0.186 TO 0.188
min94: MIN(v(out))=-13.8813 FROM 0.188 TO 0.19
max94: MAX(v(out))=13.844 FROM 0.188 TO 0.19
min95: MIN(v(out))=-13.8887 FROM 0.19 TO 0.192
max95: MAX(v(out))=13.8517 FROM 0.19 TO 0.192
min96: MIN(v(out))=-13.8957 FROM 0.192 TO 0.194
max96: MAX(v(out))=13.8587 FROM 0.192 TO 0.194
min97: MIN(v(out))=-13.9026 FROM 0.194 TO 0.196
max97: MAX(v(out))=13.8653 FROM 0.194 TO 0.196
min98: MIN(v(out))=-13.9089 FROM 0.196 TO 0.198
max98: MAX(v(out))=13.8716 FROM 0.196 TO 0.198
min99: MIN(v(out))=-13.9153 FROM 0.198 TO 0.2
max99: MAX(v(out))=13.8776 FROM 0.198 TO 0.2
min100: MIN(v(out))=-13.9212 FROM 0.2 TO 0.202
max100: MAX(v(out))=13.8831 FROM 0.2 TO 0.202


Date: Wed Aug 06 12:24:28 2025
Total elapsed time: 2.246 seconds.

tnom = 27
temp = 27
method = modified trap
totiter = 67238
traniter = 67217
tranpoints = 24827
accept = 22971
rejected = 1881
matrix size = 71
fillins = 90
solver = Normal
Thread vector: 30.2/23.9[2] 3.2/2.5[2] 13.6/2.7[2] 0.8/10.5[1]  2592/500
Matrix Compiler1: 12.93 KB object code size  7.0/2.3/[1.5]
Matrix Compiler2: 7.87 KB object code size  1.3/2.2/[1.0]

