Circuit: ***************************************

Warning: Multiple definitions of model "2scr375p" Type: BJT
Warning: Multiple definitions of model "bc857b" Type: BJT
Warning: Multiple definitions of model "bc847c" Type: BJT
Warning: Multiple definitions of model "bc847b" Type: BJT
Direct Newton iteration for .op point succeeded.

maxslew: MAX(v(out))=0.000148907 FROM 0 TO 0.01
minslew: MIN(v(out))=-0.000151143 FROM 0 TO 0.01
slew: D(v(out))=-3.79943 at 1.09907e-005


Date: Tue Apr 29 16:25:26 2025
Total elapsed time: 0.687 seconds.

tnom = 27
temp = 27
method = modified trap
totiter = 33162
traniter = 33132
tranpoints = 14827
accept = 13186
rejected = 1641
matrix size = 67
fillins = 89
solver = Normal
Thread vector: 22.3/9.6[2] 2.9/2.0[2] 2.6/2.0[2] 0.6/1.1[1]  2592/500
Matrix Compiler1: 12.76 KB object code size  2.9/1.3/[1.0]
Matrix Compiler2: 7.70 KB object code size  0.8/1.0/[0.7]

