Questionable use of curly braces in "b2 amp 0 v={10m*ceil(time*100)-10m}"
    Error: undefined symbol in: "10m*ceil([time]*100)-10m"
Questionable use of curly braces in "b3 tref 0 v={1*time}"
    Error: undefined symbol in: "1*[time]"
Circuit: ***************************************

Warning: Multiple definitions of model "2scr375p" Type: BJT
Warning: Multiple definitions of model "bc857b" Type: BJT
Warning: Multiple definitions of model "bc847c" Type: BJT
Warning: Multiple definitions of model "bc847b" Type: BJT
WARNING: Less than two connections to node TREF.  This node is used by B3.
Direct Newton iteration for .op point succeeded.

min0: MIN(v(out))=-2.11674e-007 FROM 0 TO 0.01
max0: MAX(v(out))=0 FROM 0 TO 0.01
min1: MIN(v(out))=-1.58171e-006 FROM 0.01 TO 0.02
max1: MAX(v(out))=-2.11674e-007 FROM 0.01 TO 0.02
min2: MIN(v(out))=-1.62083e-006 FROM 0.02 TO 0.03
max2: MAX(v(out))=5.50801e-008 FROM 0.02 TO 0.03
min3: MIN(v(out))=5.50801e-008 FROM 0.03 TO 0.04
max3: MAX(v(out))=3.12322e-006 FROM 0.03 TO 0.04
min4: MIN(v(out))=6.25877e-007 FROM 0.04 TO 0.05
max4: MAX(v(out))=3.36333e-006 FROM 0.04 TO 0.05
min5: MIN(v(out))=-4.22868e-006 FROM 0.05 TO 0.06
max5: MAX(v(out))=6.25877e-007 FROM 0.05 TO 0.06
min6: MIN(v(out))=-4.85887e-006 FROM 0.06 TO 0.07
max6: MAX(v(out))=3.91392e-006 FROM 0.06 TO 0.07
min7: MIN(v(out))=-1.67726e-006 FROM 0.07 TO 0.08
max7: MAX(v(out))=5.29799e-006 FROM 0.07 TO 0.08
min8: MIN(v(out))=-4.44091e-006 FROM 0.08 TO 0.09
max8: MAX(v(out))=6.53089e-006 FROM 0.08 TO 0.09
min9: MIN(v(out))=-7.21231e-006 FROM 0.09 TO 0.1
max9: MAX(v(out))=3.53262e-006 FROM 0.09 TO 0.1
min10: MIN(v(out))=-7.56561e-006 FROM 0.1 TO 0.11
max10: MAX(v(out))=4.83936e-006 FROM 0.1 TO 0.11
min11: MIN(v(out))=-8.08809e-006 FROM 0.11 TO 0.12
max11: MAX(v(out))=4.3226e-006 FROM 0.11 TO 0.12
min12: MIN(v(out))=-8.1392e-006 FROM 0.12 TO 0.13
max12: MAX(v(out))=8.88168e-006 FROM 0.12 TO 0.13
min13: MIN(v(out))=-4.95074e-006 FROM 0.13 TO 0.14
max13: MAX(v(out))=8.06943e-006 FROM 0.13 TO 0.14
min14: MIN(v(out))=-9.40798e-006 FROM 0.14 TO 0.15
max14: MAX(v(out))=9.6774e-006 FROM 0.14 TO 0.15
min15: MIN(v(out))=-1.08801e-005 FROM 0.15 TO 0.16
max15: MAX(v(out))=7.07075e-006 FROM 0.15 TO 0.16
min16: MIN(v(out))=-1.19736e-005 FROM 0.16 TO 0.17
max16: MAX(v(out))=9.80229e-006 FROM 0.16 TO 0.17
min17: MIN(v(out))=-1.30437e-005 FROM 0.17 TO 0.18
max17: MAX(v(out))=1.39633e-005 FROM 0.17 TO 0.18
min18: MIN(v(out))=-9.43092e-006 FROM 0.18 TO 0.19
max18: MAX(v(out))=1.5111e-005 FROM 0.18 TO 0.19
min19: MIN(v(out))=-1.53843e-005 FROM 0.19 TO 0.2
max19: MAX(v(out))=1.60192e-005 FROM 0.19 TO 0.2
min20: MIN(v(out))=-1.63625e-005 FROM 0.2 TO 0.21
max20: MAX(v(out))=1.13346e-005 FROM 0.2 TO 0.21
min21: MIN(v(out))=-1.70382e-005 FROM 0.21 TO 0.22
max21: MAX(v(out))=1.82643e-005 FROM 0.21 TO 0.22
min22: MIN(v(out))=-1.20741e-005 FROM 0.22 TO 0.23
max22: MAX(v(out))=1.92264e-005 FROM 0.22 TO 0.23
min23: MIN(v(out))=-1.899e-005 FROM 0.23 TO 0.24
max23: MAX(v(out))=2.01738e-005 FROM 0.23 TO 0.24
min24: MIN(v(out))=-1.98472e-005 FROM 0.24 TO 0.25
max24: MAX(v(out))=2.13089e-005 FROM 0.24 TO 0.25
min25: MIN(v(out))=-2.06782e-005 FROM 0.25 TO 0.26
max25: MAX(v(out))=2.22658e-005 FROM 0.25 TO 0.26
min26: MIN(v(out))=-2.11853e-005 FROM 0.26 TO 0.27
max26: MAX(v(out))=2.32527e-005 FROM 0.26 TO 0.27
min27: MIN(v(out))=-2.2332e-005 FROM 0.27 TO 0.28
max27: MAX(v(out))=2.40587e-005 FROM 0.27 TO 0.28
min28: MIN(v(out))=-2.25654e-005 FROM 0.28 TO 0.29
max28: MAX(v(out))=2.50731e-005 FROM 0.28 TO 0.29
min29: MIN(v(out))=-2.33807e-005 FROM 0.29 TO 0.3
max29: MAX(v(out))=2.62784e-005 FROM 0.29 TO 0.3
min30: MIN(v(out))=-2.38356e-005 FROM 0.3 TO 0.31
max30: MAX(v(out))=2.70968e-005 FROM 0.3 TO 0.31
min31: MIN(v(out))=-2.581e-005 FROM 0.31 TO 0.32
max31: MAX(v(out))=2.81479e-005 FROM 0.31 TO 0.32
min32: MIN(v(out))=-2.55314e-005 FROM 0.32 TO 0.33
max32: MAX(v(out))=2.91895e-005 FROM 0.32 TO 0.33
min33: MIN(v(out))=-2.59781e-005 FROM 0.33 TO 0.34
max33: MAX(v(out))=3.01837e-005 FROM 0.33 TO 0.34
min34: MIN(v(out))=-2.79381e-005 FROM 0.34 TO 0.35
max34: MAX(v(out))=3.04341e-005 FROM 0.34 TO 0.35
min35: MIN(v(out))=-2.92123e-005 FROM 0.35 TO 0.36
max35: MAX(v(out))=3.22839e-005 FROM 0.35 TO 0.36
min36: MIN(v(out))=-2.75576e-005 FROM 0.36 TO 0.37
max36: MAX(v(out))=3.3815e-005 FROM 0.36 TO 0.37
min37: MIN(v(out))=-3.15252e-005 FROM 0.37 TO 0.38
max37: MAX(v(out))=3.36363e-005 FROM 0.37 TO 0.38
min38: MIN(v(out))=-3.24945e-005 FROM 0.38 TO 0.39
max38: MAX(v(out))=3.60126e-005 FROM 0.38 TO 0.39
min39: MIN(v(out))=-3.35242e-005 FROM 0.39 TO 0.4
max39: MAX(v(out))=3.69094e-005 FROM 0.39 TO 0.4
min40: MIN(v(out))=-3.45155e-005 FROM 0.4 TO 0.41
max40: MAX(v(out))=3.80553e-005 FROM 0.4 TO 0.41
min41: MIN(v(out))=-3.52221e-005 FROM 0.41 TO 0.42
max41: MAX(v(out))=3.92741e-005 FROM 0.41 TO 0.42
min42: MIN(v(out))=-3.62059e-005 FROM 0.42 TO 0.43
max42: MAX(v(out))=4.04721e-005 FROM 0.42 TO 0.43
min43: MIN(v(out))=-3.71476e-005 FROM 0.43 TO 0.44
max43: MAX(v(out))=4.20206e-005 FROM 0.43 TO 0.44
min44: MIN(v(out))=-3.8416e-005 FROM 0.44 TO 0.45
max44: MAX(v(out))=4.32616e-005 FROM 0.44 TO 0.45
min45: MIN(v(out))=-3.88052e-005 FROM 0.45 TO 0.46
max45: MAX(v(out))=4.44491e-005 FROM 0.45 TO 0.46
min46: MIN(v(out))=-4.0502e-005 FROM 0.46 TO 0.47
max46: MAX(v(out))=4.57273e-005 FROM 0.46 TO 0.47
min47: MIN(v(out))=-4.15583e-005 FROM 0.47 TO 0.48
max47: MAX(v(out))=4.70213e-005 FROM 0.47 TO 0.48
min48: MIN(v(out))=-4.23538e-005 FROM 0.48 TO 0.49
max48: MAX(v(out))=4.83893e-005 FROM 0.48 TO 0.49
min49: MIN(v(out))=-4.37767e-005 FROM 0.49 TO 0.5
max49: MAX(v(out))=4.96814e-005 FROM 0.49 TO 0.5
min50: MIN(v(out))=-4.47511e-005 FROM 0.5 TO 0.51
max50: MAX(v(out))=5.10595e-005 FROM 0.5 TO 0.51
min51: MIN(v(out))=-4.58928e-005 FROM 0.51 TO 0.52
max51: MAX(v(out))=5.23376e-005 FROM 0.51 TO 0.52
min52: MIN(v(out))=-4.71e-005 FROM 0.52 TO 0.53
max52: MAX(v(out))=5.39026e-005 FROM 0.52 TO 0.53
min53: MIN(v(out))=-4.80251e-005 FROM 0.53 TO 0.54
max53: MAX(v(out))=5.53264e-005 FROM 0.53 TO 0.54
min54: MIN(v(out))=-4.8813e-005 FROM 0.54 TO 0.55
max54: MAX(v(out))=5.67732e-005 FROM 0.54 TO 0.55
min55: MIN(v(out))=-5.04307e-005 FROM 0.55 TO 0.56
max55: MAX(v(out))=5.82137e-005 FROM 0.55 TO 0.56
min56: MIN(v(out))=-5.14835e-005 FROM 0.56 TO 0.57
max56: MAX(v(out))=5.92853e-005 FROM 0.56 TO 0.57
min57: MIN(v(out))=-5.23713e-005 FROM 0.57 TO 0.58
max57: MAX(v(out))=6.07496e-005 FROM 0.57 TO 0.58
min58: MIN(v(out))=-5.24145e-005 FROM 0.58 TO 0.59
max58: MAX(v(out))=5.40117e-005 FROM 0.58 TO 0.59
min59: MIN(v(out))=-4.57468e-005 FROM 0.59 TO 0.6
max59: MAX(v(out))=6.18009e-005 FROM 0.59 TO 0.6
min60: MIN(v(out))=-4.83522e-005 FROM 0.6 TO 0.61
max60: MAX(v(out))=6.268e-005 FROM 0.6 TO 0.61
min61: MIN(v(out))=-5.31636e-005 FROM 0.61 TO 0.62
max61: MAX(v(out))=6.48572e-005 FROM 0.61 TO 0.62
min62: MIN(v(out))=-5.89034e-005 FROM 0.62 TO 0.63
max62: MAX(v(out))=6.91566e-005 FROM 0.62 TO 0.63
min63: MIN(v(out))=-5.09688e-005 FROM 0.63 TO 0.64
max63: MAX(v(out))=6.15272e-005 FROM 0.63 TO 0.64
min64: MIN(v(out))=-5.21933e-005 FROM 0.64 TO 0.65
max64: MAX(v(out))=7.07524e-005 FROM 0.64 TO 0.65
min65: MIN(v(out))=-5.34244e-005 FROM 0.65 TO 0.66
max65: MAX(v(out))=6.48798e-005 FROM 0.65 TO 0.66
min66: MIN(v(out))=-6.40067e-005 FROM 0.66 TO 0.67
max66: MAX(v(out))=7.55571e-005 FROM 0.66 TO 0.67
min67: MIN(v(out))=-5.78901e-005 FROM 0.67 TO 0.68
max67: MAX(v(out))=6.99551e-005 FROM 0.67 TO 0.68
min68: MIN(v(out))=-6.57004e-005 FROM 0.68 TO 0.69
max68: MAX(v(out))=7.96457e-005 FROM 0.68 TO 0.69
min69: MIN(v(out))=-5.88997e-005 FROM 0.69 TO 0.7
max69: MAX(v(out))=7.38742e-005 FROM 0.69 TO 0.7
min70: MIN(v(out))=-6.43712e-005 FROM 0.7 TO 0.71
max70: MAX(v(out))=8.33974e-005 FROM 0.7 TO 0.71
min71: MIN(v(out))=-6.39259e-005 FROM 0.71 TO 0.72
max71: MAX(v(out))=7.95459e-005 FROM 0.71 TO 0.72
min72: MIN(v(out))=-6.78208e-005 FROM 0.72 TO 0.73
max72: MAX(v(out))=8.68068e-005 FROM 0.72 TO 0.73
min73: MIN(v(out))=-6.48356e-005 FROM 0.73 TO 0.74
max73: MAX(v(out))=8.36117e-005 FROM 0.73 TO 0.74
min74: MIN(v(out))=-7.07389e-005 FROM 0.74 TO 0.75
max74: MAX(v(out))=9.06775e-005 FROM 0.74 TO 0.75
min75: MIN(v(out))=-6.92459e-005 FROM 0.75 TO 0.76
max75: MAX(v(out))=8.72129e-005 FROM 0.75 TO 0.76
min76: MIN(v(out))=-7.76126e-005 FROM 0.76 TO 0.77
max76: MAX(v(out))=9.56539e-005 FROM 0.76 TO 0.77
min77: MIN(v(out))=-7.19121e-005 FROM 0.77 TO 0.78
max77: MAX(v(out))=9.77541e-005 FROM 0.77 TO 0.78
min78: MIN(v(out))=-8.14381e-005 FROM 0.78 TO 0.79
max78: MAX(v(out))=9.92761e-005 FROM 0.78 TO 0.79
min79: MIN(v(out))=-8.22577e-005 FROM 0.79 TO 0.8
max79: MAX(v(out))=0.000101517 FROM 0.79 TO 0.8
min80: MIN(v(out))=-8.25673e-005 FROM 0.8 TO 0.81
max80: MAX(v(out))=0.000104295 FROM 0.8 TO 0.81
min81: MIN(v(out))=-8.41618e-005 FROM 0.81 TO 0.82
max81: MAX(v(out))=0.000106011 FROM 0.81 TO 0.82
min82: MIN(v(out))=-8.77359e-005 FROM 0.82 TO 0.83
max82: MAX(v(out))=0.000106814 FROM 0.82 TO 0.83
min83: MIN(v(out))=-8.857e-005 FROM 0.83 TO 0.84
max83: MAX(v(out))=0.000111234 FROM 0.83 TO 0.84
min84: MIN(v(out))=-9.03728e-005 FROM 0.84 TO 0.85
max84: MAX(v(out))=0.000113148 FROM 0.84 TO 0.85
min85: MIN(v(out))=-8.47152e-005 FROM 0.85 TO 0.86
max85: MAX(v(out))=0.000113953 FROM 0.85 TO 0.86
min86: MIN(v(out))=-8.6385e-005 FROM 0.86 TO 0.87
max86: MAX(v(out))=0.00011642 FROM 0.86 TO 0.87
min87: MIN(v(out))=-9.19206e-005 FROM 0.87 TO 0.88
max87: MAX(v(out))=0.000118899 FROM 0.87 TO 0.88
min88: MIN(v(out))=-8.89118e-005 FROM 0.88 TO 0.89
max88: MAX(v(out))=0.00012149 FROM 0.88 TO 0.89
min89: MIN(v(out))=-9.73799e-005 FROM 0.89 TO 0.9
max89: MAX(v(out))=0.00012406 FROM 0.89 TO 0.9
min90: MIN(v(out))=-9.91628e-005 FROM 0.9 TO 0.91
max90: MAX(v(out))=0.000126836 FROM 0.9 TO 0.91
min91: MIN(v(out))=-9.90207e-005 FROM 0.91 TO 0.92
max91: MAX(v(out))=0.000132373 FROM 0.91 TO 0.92
min92: MIN(v(out))=-0.000103048 FROM 0.92 TO 0.93
max92: MAX(v(out))=0.000132163 FROM 0.92 TO 0.93
min93: MIN(v(out))=-0.000106464 FROM 0.93 TO 0.94
max93: MAX(v(out))=0.000132691 FROM 0.93 TO 0.94
min94: MIN(v(out))=-0.000108619 FROM 0.94 TO 0.95
max94: MAX(v(out))=0.000138681 FROM 0.94 TO 0.95
min95: MIN(v(out))=-0.00011059 FROM 0.95 TO 0.96
max95: MAX(v(out))=0.000140681 FROM 0.95 TO 0.96
min96: MIN(v(out))=-0.000112589 FROM 0.96 TO 0.97
max96: MAX(v(out))=0.000140301 FROM 0.96 TO 0.97
min97: MIN(v(out))=-0.000115944 FROM 0.97 TO 0.98
max97: MAX(v(out))=0.000143204 FROM 0.97 TO 0.98
min98: MIN(v(out))=-0.00011804 FROM 0.98 TO 0.99
max98: MAX(v(out))=0.000152608 FROM 0.98 TO 0.99
min99: MIN(v(out))=-0.000120167 FROM 0.99 TO 1
max99: MAX(v(out))=0.000149494 FROM 0.99 TO 1
min100: MIN(v(out))=-0.000122326 FROM 1 TO 1.01
max100: MAX(v(out))=0.000152558 FROM 1 TO 1.01


Date: Sat Apr 26 15:35:45 2025
Total elapsed time: 4.448 seconds.

tnom = 27
temp = 27
method = modified trap
totiter = 235754
traniter = 235724
tranpoints = 101023
accept = 101020
rejected = 3
matrix size = 71
fillins = 92
solver = Normal
Thread vector: 22.8/18.8[2] 4.1/3.0[2] 4.6/2.6[2] 0.6/1.1[1]  2592/500
Matrix Compiler1: 13.13 KB object code size  3.7/2.1/[1.5]
Matrix Compiler2: 7.87 KB object code size  1.2/1.5/[0.7]

