Circuit: ***************************************

Warning: Multiple definitions of model "2scr375p" Type: BJT
Warning: Multiple definitions of model "bc857b" Type: BJT
Warning: Multiple definitions of model "bc847c" Type: BJT
Warning: Multiple definitions of model "bc847b" Type: BJT
Direct Newton iteration for .op point succeeded.

gmax: MAX(mag(v(out)))=(-90.322dB,0°) FROM 0.01 TO 1e+008
fchi=347138 FROM 0 TO 347138
fclo=24209.9 FROM 0 TO 24209.9
f20hz: v(out)=(-152.636dB,102.726°) at 20
f30hz: v(out)=(-152.636dB,102.726°) at 20
f40hz: v(out)=(-152.636dB,102.726°) at 20
f50hz: v(out)=(-144.614dB,95.0071°) at 50.05
f70hz: v(out)=(-141.695dB,93.5021°) at 70
f100hz: v(out)=(-138.594dB,92.3339°) at 100
f200hz: v(out)=(-132.572dB,90.82°) at 200
f500hz: v(out)=(-124.614dB,89.356°) at 500
f700hz: v(out)=(-121.693dB,88.7466°) at 700
f1000hz: v(out)=(-118.597dB,87.9431°) at 1000
f2000hz: v(out)=(-112.593dB,85.5061°) at 2000
f2122hz: v(out)=(-112.082dB,85.2174°) at 2122
f5000hz: v(out)=(-104.748dB,78.5833°) at 5000
f7000hz: v(out)=(-101.951dB,74.1155°) at 7000
f10000hz: v(out)=(-99.1096dB,67.6732°) at 10000
f20000hz: v(out)=(-94.3556dB,49.0075°) at 20000


Date: Tue Apr 29 19:16:13 2025
Total elapsed time: 0.110 seconds.

tnom = 27
temp = 27
method = trap
totiter = 20
traniter = 0
tranpoints = 0
accept = 0
rejected = 0
matrix size = 67
fillins = 73
solver = Normal
Matrix Compiler1:     534 opcodes
Matrix Compiler2: 7.33 KB object code size
