Questionable use of curly braces in "b2 amp 0 v={10m*ceil(time*500)-10m}"
    Error: undefined symbol in: "10m*ceil([time]*500)-10m"
Questionable use of curly braces in "b3 tref 0 v={1*time}"
    Error: undefined symbol in: "1*[time]"
Circuit: ***************************************

Warning: Multiple definitions of model "2scr375p" Type: BJT
Warning: Multiple definitions of model "bc857b" Type: BJT
Warning: Multiple definitions of model "bc847c" Type: BJT
Warning: Multiple definitions of model "bc847b" Type: BJT
WARNING: Less than two connections to node TREF.  This node is used by B3.
Direct Newton iteration for .op point succeeded.

min0: MIN(v(out))=-6.76712e-006 FROM 0 TO 0.002
max0: MAX(v(out))=-1.69407e-021 FROM 0 TO 0.002
min1: MIN(v(out))=-0.368084 FROM 0.002 TO 0.004
max1: MAX(v(out))=0.370586 FROM 0.002 TO 0.004
min2: MIN(v(out))=-0.736392 FROM 0.004 TO 0.006
max2: MAX(v(out))=0.742826 FROM 0.004 TO 0.006
min3: MIN(v(out))=-1.10325 FROM 0.006 TO 0.008
max3: MAX(v(out))=1.11326 FROM 0.006 TO 0.008
min4: MIN(v(out))=-1.46867 FROM 0.008 TO 0.01
max4: MAX(v(out))=1.48717 FROM 0.008 TO 0.01
min5: MIN(v(out))=-1.83376 FROM 0.01 TO 0.012
max5: MAX(v(out))=1.86028 FROM 0.01 TO 0.012
min6: MIN(v(out))=-2.19723 FROM 0.012 TO 0.014
max6: MAX(v(out))=2.23343 FROM 0.012 TO 0.014
min7: MIN(v(out))=-2.55953 FROM 0.014 TO 0.016
max7: MAX(v(out))=2.60656 FROM 0.014 TO 0.016
min8: MIN(v(out))=-2.92047 FROM 0.016 TO 0.018
max8: MAX(v(out))=2.97967 FROM 0.016 TO 0.018
min9: MIN(v(out))=-3.27996 FROM 0.018 TO 0.02
max9: MAX(v(out))=3.35263 FROM 0.018 TO 0.02
min10: MIN(v(out))=-3.63816 FROM 0.02 TO 0.022
max10: MAX(v(out))=3.72534 FROM 0.02 TO 0.022
min11: MIN(v(out))=-3.99452 FROM 0.022 TO 0.024
max11: MAX(v(out))=4.09768 FROM 0.022 TO 0.024
min12: MIN(v(out))=-4.34916 FROM 0.024 TO 0.026
max12: MAX(v(out))=4.46954 FROM 0.024 TO 0.026
min13: MIN(v(out))=-4.70199 FROM 0.026 TO 0.028
max13: MAX(v(out))=4.84081 FROM 0.026 TO 0.028
min14: MIN(v(out))=-5.05249 FROM 0.028 TO 0.03
max14: MAX(v(out))=5.21136 FROM 0.028 TO 0.03
min15: MIN(v(out))=-5.3973 FROM 0.03 TO 0.032
max15: MAX(v(out))=5.58109 FROM 0.03 TO 0.032
min16: MIN(v(out))=-5.74817 FROM 0.032 TO 0.034
max16: MAX(v(out))=5.9447 FROM 0.032 TO 0.034
min17: MIN(v(out))=-6.09278 FROM 0.034 TO 0.036
max17: MAX(v(out))=6.31209 FROM 0.034 TO 0.036
min18: MIN(v(out))=-6.43512 FROM 0.036 TO 0.038
max18: MAX(v(out))=6.67828 FROM 0.036 TO 0.038
min19: MIN(v(out))=-6.77508 FROM 0.038 TO 0.04
max19: MAX(v(out))=7.04315 FROM 0.038 TO 0.04
min20: MIN(v(out))=-7.11337 FROM 0.04 TO 0.042
max20: MAX(v(out))=7.40656 FROM 0.04 TO 0.042
min21: MIN(v(out))=-7.44837 FROM 0.042 TO 0.044
max21: MAX(v(out))=7.76838 FROM 0.042 TO 0.044
min22: MIN(v(out))=-7.78072 FROM 0.044 TO 0.046
max22: MAX(v(out))=8.12848 FROM 0.044 TO 0.046
min23: MIN(v(out))=-8.10376 FROM 0.046 TO 0.048
max23: MAX(v(out))=8.4867 FROM 0.046 TO 0.048
min24: MIN(v(out))=-8.43028 FROM 0.048 TO 0.05
max24: MAX(v(out))=8.84291 FROM 0.048 TO 0.05
min25: MIN(v(out))=-8.76083 FROM 0.05 TO 0.052
max25: MAX(v(out))=9.19693 FROM 0.05 TO 0.052
min26: MIN(v(out))=-9.08154 FROM 0.052 TO 0.054
max26: MAX(v(out))=9.54863 FROM 0.052 TO 0.054
min27: MIN(v(out))=-9.39907 FROM 0.054 TO 0.056
max27: MAX(v(out))=9.89782 FROM 0.054 TO 0.056
min28: MIN(v(out))=-9.70579 FROM 0.056 TO 0.058
max28: MAX(v(out))=10.2443 FROM 0.056 TO 0.058
min29: MIN(v(out))=-10.0165 FROM 0.058 TO 0.06
max29: MAX(v(out))=10.588 FROM 0.058 TO 0.06
min30: MIN(v(out))=-10.3316 FROM 0.06 TO 0.062
max30: MAX(v(out))=10.9285 FROM 0.06 TO 0.062
min31: MIN(v(out))=-10.6353 FROM 0.062 TO 0.064
max31: MAX(v(out))=11.2659 FROM 0.062 TO 0.064
min32: MIN(v(out))=-10.9353 FROM 0.064 TO 0.066
max32: MAX(v(out))=11.5997 FROM 0.064 TO 0.066
min33: MIN(v(out))=-11.2231 FROM 0.066 TO 0.068
max33: MAX(v(out))=11.9298 FROM 0.066 TO 0.068
min34: MIN(v(out))=-11.5152 FROM 0.068 TO 0.07
max34: MAX(v(out))=12.2559 FROM 0.068 TO 0.07
min35: MIN(v(out))=-11.8031 FROM 0.07 TO 0.072
max35: MAX(v(out))=12.5778 FROM 0.07 TO 0.072
min36: MIN(v(out))=-12.0952 FROM 0.072 TO 0.074
max36: MAX(v(out))=12.8952 FROM 0.072 TO 0.074
min37: MIN(v(out))=-12.3745 FROM 0.074 TO 0.076
max37: MAX(v(out))=13.2078 FROM 0.074 TO 0.076
min38: MIN(v(out))=-12.6493 FROM 0.076 TO 0.078
max38: MAX(v(out))=13.5152 FROM 0.076 TO 0.078
min39: MIN(v(out))=-12.9107 FROM 0.078 TO 0.08
max39: MAX(v(out))=13.8172 FROM 0.078 TO 0.08
min40: MIN(v(out))=-13.1758 FROM 0.08 TO 0.082
max40: MAX(v(out))=14.1133 FROM 0.08 TO 0.082
min41: MIN(v(out))=-13.436 FROM 0.082 TO 0.084
max41: MAX(v(out))=14.4032 FROM 0.082 TO 0.084
min42: MIN(v(out))=-13.691 FROM 0.084 TO 0.086
max42: MAX(v(out))=14.6865 FROM 0.084 TO 0.086
min43: MIN(v(out))=-13.9492 FROM 0.086 TO 0.088
max43: MAX(v(out))=14.9628 FROM 0.086 TO 0.088
min44: MIN(v(out))=-14.195 FROM 0.088 TO 0.09
max44: MAX(v(out))=15.2457 FROM 0.088 TO 0.09
min45: MIN(v(out))=-14.4244 FROM 0.09 TO 0.092
max45: MAX(v(out))=15.4756 FROM 0.09 TO 0.092
min46: MIN(v(out))=-14.6607 FROM 0.092 TO 0.094
max46: MAX(v(out))=15.6247 FROM 0.092 TO 0.094
min47: MIN(v(out))=-14.8889 FROM 0.094 TO 0.096
max47: MAX(v(out))=15.7329 FROM 0.094 TO 0.096
min48: MIN(v(out))=-15.0953 FROM 0.096 TO 0.098
max48: MAX(v(out))=15.8331 FROM 0.096 TO 0.098
min49: MIN(v(out))=-15.3048 FROM 0.098 TO 0.1
max49: MAX(v(out))=15.925 FROM 0.098 TO 0.1
min50: MIN(v(out))=-15.4483 FROM 0.1 TO 0.102
max50: MAX(v(out))=16.0162 FROM 0.1 TO 0.102
min51: MIN(v(out))=-15.5342 FROM 0.102 TO 0.104
max51: MAX(v(out))=16.0974 FROM 0.102 TO 0.104
min52: MIN(v(out))=-15.6222 FROM 0.104 TO 0.106
max52: MAX(v(out))=16.1819 FROM 0.104 TO 0.106
min53: MIN(v(out))=-15.7099 FROM 0.106 TO 0.108
max53: MAX(v(out))=16.2599 FROM 0.106 TO 0.108
min54: MIN(v(out))=-15.7872 FROM 0.108 TO 0.11
max54: MAX(v(out))=16.3306 FROM 0.108 TO 0.11
min55: MIN(v(out))=-15.8624 FROM 0.11 TO 0.112
max55: MAX(v(out))=16.399 FROM 0.11 TO 0.112
min56: MIN(v(out))=-15.9403 FROM 0.112 TO 0.114
max56: MAX(v(out))=16.4585 FROM 0.112 TO 0.114
min57: MIN(v(out))=-16.0114 FROM 0.114 TO 0.116
max57: MAX(v(out))=16.5197 FROM 0.114 TO 0.116
min58: MIN(v(out))=-16.079 FROM 0.116 TO 0.118
max58: MAX(v(out))=16.578 FROM 0.116 TO 0.118
min59: MIN(v(out))=-16.1454 FROM 0.118 TO 0.12
max59: MAX(v(out))=16.6411 FROM 0.118 TO 0.12
min60: MIN(v(out))=-16.2004 FROM 0.12 TO 0.122
max60: MAX(v(out))=16.6962 FROM 0.12 TO 0.122
min61: MIN(v(out))=-16.2605 FROM 0.122 TO 0.124
max61: MAX(v(out))=16.739 FROM 0.122 TO 0.124
min62: MIN(v(out))=-16.3122 FROM 0.124 TO 0.126
max62: MAX(v(out))=16.7887 FROM 0.124 TO 0.126
min63: MIN(v(out))=-16.3688 FROM 0.126 TO 0.128
max63: MAX(v(out))=16.8381 FROM 0.126 TO 0.128
min64: MIN(v(out))=-16.4254 FROM 0.128 TO 0.13
max64: MAX(v(out))=16.873 FROM 0.128 TO 0.13
min65: MIN(v(out))=-16.474 FROM 0.13 TO 0.132
max65: MAX(v(out))=16.9159 FROM 0.13 TO 0.132
min66: MIN(v(out))=-16.5159 FROM 0.132 TO 0.134
max66: MAX(v(out))=16.9493 FROM 0.132 TO 0.134
min67: MIN(v(out))=-16.5754 FROM 0.134 TO 0.136
max67: MAX(v(out))=16.989 FROM 0.134 TO 0.136
min68: MIN(v(out))=-16.6145 FROM 0.136 TO 0.138
max68: MAX(v(out))=17.0228 FROM 0.136 TO 0.138
min69: MIN(v(out))=-16.6551 FROM 0.138 TO 0.14
max69: MAX(v(out))=17.0563 FROM 0.138 TO 0.14
min70: MIN(v(out))=-16.6961 FROM 0.14 TO 0.142
max70: MAX(v(out))=17.0905 FROM 0.14 TO 0.142
min71: MIN(v(out))=-16.7299 FROM 0.142 TO 0.144
max71: MAX(v(out))=17.1162 FROM 0.142 TO 0.144
min72: MIN(v(out))=-16.7704 FROM 0.144 TO 0.146
max72: MAX(v(out))=17.1435 FROM 0.144 TO 0.146
min73: MIN(v(out))=-16.8053 FROM 0.146 TO 0.148
max73: MAX(v(out))=17.1701 FROM 0.146 TO 0.148
min74: MIN(v(out))=-16.845 FROM 0.148 TO 0.15
max74: MAX(v(out))=17.1948 FROM 0.148 TO 0.15
min75: MIN(v(out))=-16.8766 FROM 0.15 TO 0.152
max75: MAX(v(out))=17.2239 FROM 0.15 TO 0.152
min76: MIN(v(out))=-16.9068 FROM 0.152 TO 0.154
max76: MAX(v(out))=17.2432 FROM 0.152 TO 0.154
min77: MIN(v(out))=-16.9343 FROM 0.154 TO 0.156
max77: MAX(v(out))=17.265 FROM 0.154 TO 0.156
min78: MIN(v(out))=-16.9666 FROM 0.156 TO 0.158
max78: MAX(v(out))=17.2857 FROM 0.156 TO 0.158
min79: MIN(v(out))=-16.9921 FROM 0.158 TO 0.16
max79: MAX(v(out))=17.3074 FROM 0.158 TO 0.16
min80: MIN(v(out))=-17.0184 FROM 0.16 TO 0.162
max80: MAX(v(out))=17.3246 FROM 0.16 TO 0.162
min81: MIN(v(out))=-17.0419 FROM 0.162 TO 0.164
max81: MAX(v(out))=17.3439 FROM 0.162 TO 0.164
min82: MIN(v(out))=-17.0634 FROM 0.164 TO 0.166
max82: MAX(v(out))=17.3577 FROM 0.164 TO 0.166
min83: MIN(v(out))=-17.0928 FROM 0.166 TO 0.168
max83: MAX(v(out))=17.3731 FROM 0.166 TO 0.168
min84: MIN(v(out))=-17.1146 FROM 0.168 TO 0.17
max84: MAX(v(out))=17.3942 FROM 0.168 TO 0.17
min85: MIN(v(out))=-17.1325 FROM 0.17 TO 0.172
max85: MAX(v(out))=17.4032 FROM 0.17 TO 0.172
min86: MIN(v(out))=-17.1576 FROM 0.172 TO 0.174
max86: MAX(v(out))=17.4207 FROM 0.172 TO 0.174
min87: MIN(v(out))=-17.1736 FROM 0.174 TO 0.176
max87: MAX(v(out))=17.4347 FROM 0.174 TO 0.176
min88: MIN(v(out))=-17.1949 FROM 0.176 TO 0.178
max88: MAX(v(out))=17.4456 FROM 0.176 TO 0.178
min89: MIN(v(out))=-17.211 FROM 0.178 TO 0.18
max89: MAX(v(out))=17.455 FROM 0.178 TO 0.18
min90: MIN(v(out))=-17.2256 FROM 0.18 TO 0.182
max90: MAX(v(out))=17.4718 FROM 0.18 TO 0.182
min91: MIN(v(out))=-17.2434 FROM 0.182 TO 0.184
max91: MAX(v(out))=17.4797 FROM 0.182 TO 0.184
min92: MIN(v(out))=-17.2567 FROM 0.184 TO 0.186
max92: MAX(v(out))=17.4955 FROM 0.184 TO 0.186
min93: MIN(v(out))=-17.2719 FROM 0.186 TO 0.188
max93: MAX(v(out))=17.5127 FROM 0.186 TO 0.188
min94: MIN(v(out))=-17.288 FROM 0.188 TO 0.19
max94: MAX(v(out))=17.517 FROM 0.188 TO 0.19
min95: MIN(v(out))=-17.3027 FROM 0.19 TO 0.192
max95: MAX(v(out))=17.5322 FROM 0.19 TO 0.192
min96: MIN(v(out))=-17.3132 FROM 0.192 TO 0.194
max96: MAX(v(out))=17.5422 FROM 0.192 TO 0.194
min97: MIN(v(out))=-17.3269 FROM 0.194 TO 0.196
max97: MAX(v(out))=17.5424 FROM 0.194 TO 0.196
min98: MIN(v(out))=-17.3389 FROM 0.196 TO 0.198
max98: MAX(v(out))=17.5492 FROM 0.196 TO 0.198
min99: MIN(v(out))=-17.348 FROM 0.198 TO 0.2
max99: MAX(v(out))=17.5599 FROM 0.198 TO 0.2
min100: MIN(v(out))=-17.3648 FROM 0.2 TO 0.202
max100: MAX(v(out))=17.565 FROM 0.2 TO 0.202


Date: Mon Jun 30 17:07:30 2025
Total elapsed time: 1.573 seconds.

tnom = 27
temp = 27
method = modified trap
totiter = 71988
traniter = 71958
tranpoints = 25486
accept = 23514
rejected = 1972
matrix size = 71
fillins = 96
solver = Normal
Thread vector: 23.0/16.7[2] 3.5/2.3[2] 4.2/2.3[2] 0.6/1.2[1]  2592/500
Matrix Compiler1: 13.20 KB object code size  3.6/1.7/[1.3]
Matrix Compiler2: 8.04 KB object code size  1.0/1.6/[0.7]

