Circuit: ***************************************

Warning: Multiple definitions of model "2scr375p" Type: BJT
Warning: Multiple definitions of model "bc857b" Type: BJT
Warning: Multiple definitions of model "bc847c" Type: BJT
Warning: Multiple definitions of model "bc847b" Type: BJT
Direct Newton iteration for .op point succeeded.

gmax: MAX(mag(v(out)))=(-23.3505dB,0°) FROM 0.01 TO 1e+008
fchi=28122.1 FROM 0 TO 28122.1
fclo=2.89248 FROM 0 TO 2.89248
f20hz: v(out)=(-23.4367dB,-170.298°) at 20
f30hz: v(out)=(-23.4367dB,-170.298°) at 20
f40hz: v(out)=(-23.4367dB,-170.298°) at 20
f50hz: v(out)=(-23.3637dB,-176.206°) at 50.05
f70hz: v(out)=(-23.3568dB,-177.367°) at 70
f100hz: v(out)=(-23.3532dB,-178.278°) at 100
f200hz: v(out)=(-23.3507dB,-179.496°) at 200
f500hz: v(out)=(-23.3511dB,179.202°) at 500
f700hz: v(out)=(-23.3524dB,178.614°) at 700
f1000hz: v(out)=(-23.3551dB,177.817°) at 1000
f2000hz: v(out)=(-23.3713dB,175.344°) at 2000
f2122hz: v(out)=(-23.374dB,175.05°) at 2122
f5000hz: v(out)=(-23.4834dB,168.24°) at 5000
f7000hz: v(out)=(-23.6081dB,163.642°) at 7000
f10000hz: v(out)=(-23.8619dB,156.992°) at 10000
f20000hz: v(out)=(-25.1195dB,137.584°) at 20000


Date: Thu May 01 18:00:16 2025
Total elapsed time: 0.092 seconds.

tnom = 27
temp = 27
method = trap
totiter = 15
traniter = 0
tranpoints = 0
accept = 0
rejected = 0
matrix size = 67
fillins = 71
solver = Normal
Matrix Compiler1:     527 opcodes
Matrix Compiler2: 7.30 KB object code size
