Circuit: ***************************************

Warning: Multiple definitions of model "2scr375p" Type: BJT
Warning: Multiple definitions of model "bc857b" Type: BJT
Warning: Multiple definitions of model "bc847c" Type: BJT
Warning: Multiple definitions of model "bc847b" Type: BJT
Direct Newton iteration failed to find .op point.  (Use ".option noopiter" to skip.)
Starting Gmin stepping
Gmin = 10
Gmin = 1.07374
Gmin = 0.115292
Gmin = 0.0123794
Gmin = 0.00132923
Gmin = 0.000142725
Gmin = 1.5325e-005
Gmin = 1.6455e-006
Gmin = 1.76685e-007
Gmin = 1.89714e-008
Gmin = 2.03704e-009
Gmin = 2.18725e-010
Gmin = 2.34854e-011
Gmin = 2.52173e-012
Gmin = 2.70769e-013
Gmin = 0
Gmin stepping succeeded in finding the operating point.

N-Period=1
Fourier components of V(out)
DC component:1.16252e-011

Harmonic	Frequency	 Fourier 	Normalized	 Phase  	Normalized
 Number 	  [Hz]   	Component	 Component	[degree]	Phase [deg]
    1   	1.000e+03	1.946e-06	1.000e+00	   87.90°	    0.00°
    2   	2.000e+03	8.156e-09	4.192e-03	  174.28°	   86.37°
    3   	3.000e+03	9.435e-10	4.849e-04	   76.34°	  -11.57°
    4   	4.000e+03	1.435e-11	7.377e-06	  103.50°	   15.60°
    5   	5.000e+03	2.387e-11	1.227e-05	  102.46°	   14.56°
    6   	6.000e+03	2.325e-11	1.195e-05	   98.86°	   10.96°
    7   	7.000e+03	2.304e-11	1.184e-05	  100.45°	   12.55°
    8   	8.000e+03	2.297e-11	1.181e-05	  101.98°	   14.08°
    9   	9.000e+03	2.288e-11	1.176e-05	  103.46°	   15.56°
   10   	1.000e+04	2.278e-11	1.171e-05	  104.94°	   17.04°
Total Harmonic Distortion: 0.422040%(0.422359%)



output_power: AVG(i(rload)*v(out))=-2.36575e-013 FROM 0 TO 0.01


Date: Fri Apr 25 20:21:27 2025
Total elapsed time: 6.999 seconds.

tnom = 27
temp = 27
method = modified trap
totiter = 404488
traniter = 404034
tranpoints = 200028
accept = 200027
rejected = 1
matrix size = 67
fillins = 67
solver = Normal
Thread vector: 21.4/15.9[2] 3.9/3.5[2] 4.4/4.7[1] 0.6/0.9[1]  2592/500
Matrix Compiler1: 10.76 KB object code size  2.7/1.5/[1.0]
Matrix Compiler2: 7.34 KB object code size  1.2/1.5/[0.7]

