Circuit: ***************************************

Warning: Multiple definitions of model "2scr375p" Type: BJT
Warning: Multiple definitions of model "bc857b" Type: BJT
Warning: Multiple definitions of model "bc847c" Type: BJT
Warning: Multiple definitions of model "bc847b" Type: BJT
Direct Newton iteration for .op point succeeded.

maxslew: MAX(v(out))=2.42221e-010 FROM 0 TO 0.01
minslew: MIN(v(out))=3.74008e-011 FROM 0 TO 0.01
slew: D(v(out))=2.05267e-008 at 0.0049891


Date: Thu Apr 24 17:34:56 2025
Total elapsed time: 0.569 seconds.

tnom = 27
temp = 27
method = modified trap
totiter = 19792
traniter = 19776
tranpoints = 9274
accept = 8851
rejected = 423
matrix size = 67
fillins = 85
solver = Normal
Thread vector: 21.2/14.3[2] 3.6/3.1[2] 3.1/2.6[2] 0.5/0.7[1]  2592/500
Matrix Compiler1: 12.39 KB object code size  3.0/1.7/[1.1]
Matrix Compiler2: 7.67 KB object code size  0.9/1.3/[0.7]

