Questionable use of curly braces in "b2 amp 0 v={10m*ceil(time*500)-10m}"
    Error: undefined symbol in: "10m*ceil([time]*500)-10m"
Questionable use of curly braces in "b3 tref 0 v={1*time}"
    Error: undefined symbol in: "1*[time]"
Circuit: ***************************************

Warning: Multiple definitions of model "2scr375p" Type: BJT
Warning: Multiple definitions of model "bc857b" Type: BJT
Warning: Multiple definitions of model "bc847c" Type: BJT
Warning: Multiple definitions of model "bc847b" Type: BJT
WARNING: Less than two connections to node TREF.  This node is used by B3.
Direct Newton iteration for .op point succeeded.

min0: MIN(v(out))=-7.32319e-006 FROM 0 TO 0.002
max0: MAX(v(out))=0 FROM 0 TO 0.002
min1: MIN(v(out))=-0.385986 FROM 0.002 TO 0.004
max1: MAX(v(out))=0.387832 FROM 0.002 TO 0.004
min2: MIN(v(out))=-0.771785 FROM 0.004 TO 0.006
max2: MAX(v(out))=0.775597 FROM 0.004 TO 0.006
min3: MIN(v(out))=-1.15732 FROM 0.006 TO 0.008
max3: MAX(v(out))=1.16322 FROM 0.006 TO 0.008
min4: MIN(v(out))=-1.54249 FROM 0.008 TO 0.01
max4: MAX(v(out))=1.5506 FROM 0.008 TO 0.01
min5: MIN(v(out))=-1.92719 FROM 0.01 TO 0.012
max5: MAX(v(out))=1.93762 FROM 0.01 TO 0.012
min6: MIN(v(out))=-2.3113 FROM 0.012 TO 0.014
max6: MAX(v(out))=2.32417 FROM 0.012 TO 0.014
min7: MIN(v(out))=-2.69466 FROM 0.014 TO 0.016
max7: MAX(v(out))=2.71016 FROM 0.014 TO 0.016
min8: MIN(v(out))=-3.07728 FROM 0.016 TO 0.018
max8: MAX(v(out))=3.09548 FROM 0.016 TO 0.018
min9: MIN(v(out))=-3.45901 FROM 0.018 TO 0.02
max9: MAX(v(out))=3.48003 FROM 0.018 TO 0.02
min10: MIN(v(out))=-3.83973 FROM 0.02 TO 0.022
max10: MAX(v(out))=3.86369 FROM 0.02 TO 0.022
min11: MIN(v(out))=-4.21933 FROM 0.022 TO 0.024
max11: MAX(v(out))=4.24637 FROM 0.022 TO 0.024
min12: MIN(v(out))=-4.59771 FROM 0.024 TO 0.026
max12: MAX(v(out))=4.62795 FROM 0.024 TO 0.026
min13: MIN(v(out))=-4.97475 FROM 0.026 TO 0.028
max13: MAX(v(out))=5.00834 FROM 0.026 TO 0.028
min14: MIN(v(out))=-5.35034 FROM 0.028 TO 0.03
max14: MAX(v(out))=5.38742 FROM 0.028 TO 0.03
min15: MIN(v(out))=-5.72437 FROM 0.03 TO 0.032
max15: MAX(v(out))=5.76508 FROM 0.03 TO 0.032
min16: MIN(v(out))=-6.09671 FROM 0.032 TO 0.034
max16: MAX(v(out))=6.14122 FROM 0.032 TO 0.034
min17: MIN(v(out))=-6.46725 FROM 0.034 TO 0.036
max17: MAX(v(out))=6.51572 FROM 0.034 TO 0.036
min18: MIN(v(out))=-6.83588 FROM 0.036 TO 0.038
max18: MAX(v(out))=6.88846 FROM 0.036 TO 0.038
min19: MIN(v(out))=-7.20246 FROM 0.038 TO 0.04
max19: MAX(v(out))=7.25933 FROM 0.038 TO 0.04
min20: MIN(v(out))=-7.56687 FROM 0.04 TO 0.042
max20: MAX(v(out))=7.62821 FROM 0.04 TO 0.042
min21: MIN(v(out))=-7.92899 FROM 0.042 TO 0.044
max21: MAX(v(out))=7.99498 FROM 0.042 TO 0.044
min22: MIN(v(out))=-8.28867 FROM 0.044 TO 0.046
max22: MAX(v(out))=8.35951 FROM 0.044 TO 0.046
min23: MIN(v(out))=-8.64579 FROM 0.046 TO 0.048
max23: MAX(v(out))=8.72167 FROM 0.046 TO 0.048
min24: MIN(v(out))=-9.0002 FROM 0.048 TO 0.05
max24: MAX(v(out))=9.08132 FROM 0.048 TO 0.05
min25: MIN(v(out))=-9.35175 FROM 0.05 TO 0.052
max25: MAX(v(out))=9.43832 FROM 0.05 TO 0.052
min26: MIN(v(out))=-9.70071 FROM 0.052 TO 0.054
max26: MAX(v(out))=9.79253 FROM 0.052 TO 0.054
min27: MIN(v(out))=-10.0461 FROM 0.054 TO 0.056
max27: MAX(v(out))=10.1438 FROM 0.054 TO 0.056
min28: MIN(v(out))=-10.3882 FROM 0.056 TO 0.058
max28: MAX(v(out))=10.4919 FROM 0.056 TO 0.058
min29: MIN(v(out))=-10.7263 FROM 0.058 TO 0.06
max29: MAX(v(out))=10.8368 FROM 0.058 TO 0.06
min30: MIN(v(out))=-11.0612 FROM 0.06 TO 0.062
max30: MAX(v(out))=11.1782 FROM 0.06 TO 0.062
min31: MIN(v(out))=-11.3927 FROM 0.062 TO 0.064
max31: MAX(v(out))=11.5159 FROM 0.062 TO 0.064
min32: MIN(v(out))=-11.705 FROM 0.064 TO 0.066
max32: MAX(v(out))=11.8498 FROM 0.064 TO 0.066
min33: MIN(v(out))=-12.0424 FROM 0.066 TO 0.068
max33: MAX(v(out))=12.1796 FROM 0.066 TO 0.068
min34: MIN(v(out))=-12.3455 FROM 0.068 TO 0.07
max34: MAX(v(out))=12.505 FROM 0.068 TO 0.07
min35: MIN(v(out))=-12.6741 FROM 0.07 TO 0.072
max35: MAX(v(out))=12.8102 FROM 0.07 TO 0.072
min36: MIN(v(out))=-12.9826 FROM 0.072 TO 0.074
max36: MAX(v(out))=13.1419 FROM 0.072 TO 0.074
min37: MIN(v(out))=-13.2703 FROM 0.074 TO 0.076
max37: MAX(v(out))=13.4369 FROM 0.074 TO 0.076
min38: MIN(v(out))=-13.5836 FROM 0.076 TO 0.078
max38: MAX(v(out))=13.7582 FROM 0.076 TO 0.078
min39: MIN(v(out))=-13.8756 FROM 0.078 TO 0.08
max39: MAX(v(out))=14.0419 FROM 0.078 TO 0.08
min40: MIN(v(out))=-14.1615 FROM 0.08 TO 0.082
max40: MAX(v(out))=14.3355 FROM 0.08 TO 0.082
min41: MIN(v(out))=-14.4249 FROM 0.082 TO 0.084
max41: MAX(v(out))=14.6384 FROM 0.082 TO 0.084
min42: MIN(v(out))=-14.6492 FROM 0.084 TO 0.086
max42: MAX(v(out))=14.9133 FROM 0.084 TO 0.086
min43: MIN(v(out))=-14.8038 FROM 0.086 TO 0.088
max43: MAX(v(out))=15.1883 FROM 0.086 TO 0.088
min44: MIN(v(out))=-14.92 FROM 0.088 TO 0.09
max44: MAX(v(out))=15.4378 FROM 0.088 TO 0.09
min45: MIN(v(out))=-15.032 FROM 0.09 TO 0.092
max45: MAX(v(out))=15.7071 FROM 0.09 TO 0.092
min46: MIN(v(out))=-15.1404 FROM 0.092 TO 0.094
max46: MAX(v(out))=15.9604 FROM 0.092 TO 0.094
min47: MIN(v(out))=-15.242 FROM 0.094 TO 0.096
max47: MAX(v(out))=16.1642 FROM 0.094 TO 0.096
min48: MIN(v(out))=-15.3399 FROM 0.096 TO 0.098
max48: MAX(v(out))=16.3465 FROM 0.096 TO 0.098
min49: MIN(v(out))=-15.4369 FROM 0.098 TO 0.1
max49: MAX(v(out))=16.4397 FROM 0.098 TO 0.1
min50: MIN(v(out))=-15.5271 FROM 0.1 TO 0.102
max50: MAX(v(out))=16.5212 FROM 0.1 TO 0.102
min51: MIN(v(out))=-15.6185 FROM 0.102 TO 0.104
max51: MAX(v(out))=16.6029 FROM 0.102 TO 0.104
min52: MIN(v(out))=-15.7047 FROM 0.104 TO 0.106
max52: MAX(v(out))=16.672 FROM 0.104 TO 0.106
min53: MIN(v(out))=-15.7882 FROM 0.106 TO 0.108
max53: MAX(v(out))=16.7458 FROM 0.106 TO 0.108
min54: MIN(v(out))=-15.8619 FROM 0.108 TO 0.11
max54: MAX(v(out))=16.8124 FROM 0.108 TO 0.11
min55: MIN(v(out))=-15.9429 FROM 0.11 TO 0.112
max55: MAX(v(out))=16.8778 FROM 0.11 TO 0.112
min56: MIN(v(out))=-16.0133 FROM 0.112 TO 0.114
max56: MAX(v(out))=16.9383 FROM 0.112 TO 0.114
min57: MIN(v(out))=-16.0811 FROM 0.114 TO 0.116
max57: MAX(v(out))=16.9957 FROM 0.114 TO 0.116
min58: MIN(v(out))=-16.1454 FROM 0.116 TO 0.118
max58: MAX(v(out))=17.0417 FROM 0.116 TO 0.118
min59: MIN(v(out))=-16.2166 FROM 0.118 TO 0.12
max59: MAX(v(out))=17.0814 FROM 0.118 TO 0.12
min60: MIN(v(out))=-16.2797 FROM 0.12 TO 0.122
max60: MAX(v(out))=17.1308 FROM 0.12 TO 0.122
min61: MIN(v(out))=-16.3428 FROM 0.122 TO 0.124
max61: MAX(v(out))=17.1702 FROM 0.122 TO 0.124
min62: MIN(v(out))=-16.3999 FROM 0.124 TO 0.126
max62: MAX(v(out))=17.212 FROM 0.124 TO 0.126
min63: MIN(v(out))=-16.4507 FROM 0.126 TO 0.128
max63: MAX(v(out))=17.2526 FROM 0.126 TO 0.128
min64: MIN(v(out))=-16.5035 FROM 0.128 TO 0.13
max64: MAX(v(out))=17.2815 FROM 0.128 TO 0.13
min65: MIN(v(out))=-16.5596 FROM 0.13 TO 0.132
max65: MAX(v(out))=17.3108 FROM 0.13 TO 0.132
min66: MIN(v(out))=-16.6083 FROM 0.132 TO 0.134
max66: MAX(v(out))=17.3398 FROM 0.132 TO 0.134
min67: MIN(v(out))=-16.6543 FROM 0.134 TO 0.136
max67: MAX(v(out))=17.374 FROM 0.134 TO 0.136
min68: MIN(v(out))=-16.6999 FROM 0.136 TO 0.138
max68: MAX(v(out))=17.3944 FROM 0.136 TO 0.138
min69: MIN(v(out))=-16.7448 FROM 0.138 TO 0.14
max69: MAX(v(out))=17.4246 FROM 0.138 TO 0.14
min70: MIN(v(out))=-16.7877 FROM 0.14 TO 0.142
max70: MAX(v(out))=17.4457 FROM 0.14 TO 0.142
min71: MIN(v(out))=-16.8262 FROM 0.142 TO 0.144
max71: MAX(v(out))=17.4659 FROM 0.142 TO 0.144
min72: MIN(v(out))=-16.8641 FROM 0.144 TO 0.146
max72: MAX(v(out))=17.4908 FROM 0.144 TO 0.146
min73: MIN(v(out))=-16.9041 FROM 0.146 TO 0.148
max73: MAX(v(out))=17.5077 FROM 0.146 TO 0.148
min74: MIN(v(out))=-16.9417 FROM 0.148 TO 0.15
max74: MAX(v(out))=17.5255 FROM 0.148 TO 0.15
min75: MIN(v(out))=-16.971 FROM 0.15 TO 0.152
max75: MAX(v(out))=17.5352 FROM 0.15 TO 0.152
min76: MIN(v(out))=-17.004 FROM 0.152 TO 0.154
max76: MAX(v(out))=17.5543 FROM 0.152 TO 0.154
min77: MIN(v(out))=-17.037 FROM 0.154 TO 0.156
max77: MAX(v(out))=17.5674 FROM 0.154 TO 0.156
min78: MIN(v(out))=-17.0705 FROM 0.156 TO 0.158
max78: MAX(v(out))=17.5819 FROM 0.156 TO 0.158
min79: MIN(v(out))=-17.1006 FROM 0.158 TO 0.16
max79: MAX(v(out))=17.6016 FROM 0.158 TO 0.16
min80: MIN(v(out))=-17.1242 FROM 0.16 TO 0.162
max80: MAX(v(out))=17.606 FROM 0.16 TO 0.162
min81: MIN(v(out))=-17.1521 FROM 0.162 TO 0.164
max81: MAX(v(out))=17.6176 FROM 0.162 TO 0.164
min82: MIN(v(out))=-17.1807 FROM 0.164 TO 0.166
max82: MAX(v(out))=17.6254 FROM 0.164 TO 0.166
min83: MIN(v(out))=-17.2001 FROM 0.166 TO 0.168
max83: MAX(v(out))=17.6406 FROM 0.166 TO 0.168
min84: MIN(v(out))=-17.2253 FROM 0.168 TO 0.17
max84: MAX(v(out))=17.6447 FROM 0.168 TO 0.17
min85: MIN(v(out))=-17.2511 FROM 0.17 TO 0.172
max85: MAX(v(out))=17.6563 FROM 0.17 TO 0.172
min86: MIN(v(out))=-17.2711 FROM 0.172 TO 0.174
max86: MAX(v(out))=17.6728 FROM 0.172 TO 0.174
min87: MIN(v(out))=-17.2948 FROM 0.174 TO 0.176
max87: MAX(v(out))=17.6703 FROM 0.174 TO 0.176
min88: MIN(v(out))=-17.3168 FROM 0.176 TO 0.178
max88: MAX(v(out))=17.6886 FROM 0.176 TO 0.178
min89: MIN(v(out))=-17.3352 FROM 0.178 TO 0.18
max89: MAX(v(out))=17.6862 FROM 0.178 TO 0.18
min90: MIN(v(out))=-17.3526 FROM 0.18 TO 0.182
max90: MAX(v(out))=17.7006 FROM 0.18 TO 0.182
min91: MIN(v(out))=-17.3651 FROM 0.182 TO 0.184
max91: MAX(v(out))=17.6974 FROM 0.182 TO 0.184
min92: MIN(v(out))=-17.3837 FROM 0.184 TO 0.186
max92: MAX(v(out))=17.7098 FROM 0.184 TO 0.186
min93: MIN(v(out))=-17.4013 FROM 0.186 TO 0.188
max93: MAX(v(out))=17.7171 FROM 0.186 TO 0.188
min94: MIN(v(out))=-17.4163 FROM 0.188 TO 0.19
max94: MAX(v(out))=17.7207 FROM 0.188 TO 0.19
min95: MIN(v(out))=-17.4363 FROM 0.19 TO 0.192
max95: MAX(v(out))=17.728 FROM 0.19 TO 0.192
min96: MIN(v(out))=-17.4499 FROM 0.192 TO 0.194
max96: MAX(v(out))=17.7282 FROM 0.192 TO 0.194
min97: MIN(v(out))=-17.4663 FROM 0.194 TO 0.196
max97: MAX(v(out))=17.7446 FROM 0.194 TO 0.196
min98: MIN(v(out))=-17.4773 FROM 0.196 TO 0.198
max98: MAX(v(out))=17.737 FROM 0.196 TO 0.198
min99: MIN(v(out))=-17.4919 FROM 0.198 TO 0.2
max99: MAX(v(out))=17.7547 FROM 0.198 TO 0.2
min100: MIN(v(out))=-17.4976 FROM 0.2 TO 0.202
max100: MAX(v(out))=17.7591 FROM 0.2 TO 0.202


Date: Sun May 18 07:18:51 2025
Total elapsed time: 1.524 seconds.

tnom = 27
temp = 27
method = modified trap
totiter = 73511
traniter = 73488
tranpoints = 26001
accept = 23856
rejected = 2145
matrix size = 71
fillins = 94
solver = Normal
Thread vector: 21.6/11.6[2] 3.0/2.0[2] 3.1/1.9[2] 0.5/1.0[1]  2592/500
Matrix Compiler1: 13.12 KB object code size  3.2/1.5/[1.0]
Matrix Compiler2: 8.01 KB object code size  0.8/1.0/[0.7]

