Questionable use of curly braces in "b2 amp 0 v={10m*ceil(time*100)-10m}"
    Error: undefined symbol in: "10m*ceil([time]*100)-10m"
Questionable use of curly braces in "b3 tref 0 v={1*time}"
    Error: undefined symbol in: "1*[time]"
Circuit: ***************************************

Warning: Multiple definitions of model "2scr375p" Type: BJT
Warning: Multiple definitions of model "bc857b" Type: BJT
Warning: Multiple definitions of model "bc847c" Type: BJT
Warning: Multiple definitions of model "bc847b" Type: BJT
WARNING: Less than two connections to node TREF.  This node is used by B3.
Direct Newton iteration for .op point succeeded.
Heightened Def Con from 1e-010 to 2.1e-009

min0: MIN(v(out))=-8.27752e-006 FROM 0 TO 0.01
max0: MAX(v(out))=-1.69407e-021 FROM 0 TO 0.01
min1: MIN(v(out))=-0.00422969 FROM 0.01 TO 0.02
max1: MAX(v(out))=0.0042453 FROM 0.01 TO 0.02
min2: MIN(v(out))=-0.00845754 FROM 0.02 TO 0.03
max2: MAX(v(out))=0.00846912 FROM 0.02 TO 0.03
min3: MIN(v(out))=-0.0127144 FROM 0.03 TO 0.04
max3: MAX(v(out))=0.0127032 FROM 0.03 TO 0.04
min4: MIN(v(out))=-0.0169801 FROM 0.04 TO 0.05
max4: MAX(v(out))=0.016929 FROM 0.04 TO 0.05
min5: MIN(v(out))=-0.021223 FROM 0.05 TO 0.06
max5: MAX(v(out))=0.0211419 FROM 0.05 TO 0.06
min6: MIN(v(out))=-0.0255273 FROM 0.06 TO 0.07
max6: MAX(v(out))=0.0253491 FROM 0.06 TO 0.07
min7: MIN(v(out))=-0.0297798 FROM 0.07 TO 0.08
max7: MAX(v(out))=0.0295193 FROM 0.07 TO 0.08
min8: MIN(v(out))=-0.0341135 FROM 0.08 TO 0.09
max8: MAX(v(out))=0.0337502 FROM 0.08 TO 0.09
min9: MIN(v(out))=-0.0384207 FROM 0.09 TO 0.1
max9: MAX(v(out))=0.0379519 FROM 0.09 TO 0.1
min10: MIN(v(out))=-0.0427375 FROM 0.1 TO 0.11
max10: MAX(v(out))=0.0421466 FROM 0.1 TO 0.11
min11: MIN(v(out))=-0.0470639 FROM 0.11 TO 0.12
max11: MAX(v(out))=0.046338 FROM 0.11 TO 0.12
min12: MIN(v(out))=-0.0514001 FROM 0.12 TO 0.13
max12: MAX(v(out))=0.0505184 FROM 0.12 TO 0.13
min13: MIN(v(out))=-0.0557335 FROM 0.13 TO 0.14
max13: MAX(v(out))=0.054713 FROM 0.13 TO 0.14
min14: MIN(v(out))=-0.0600978 FROM 0.14 TO 0.15
max14: MAX(v(out))=0.0588942 FROM 0.14 TO 0.15
min15: MIN(v(out))=-0.0644612 FROM 0.15 TO 0.16
max15: MAX(v(out))=0.0630819 FROM 0.15 TO 0.16
min16: MIN(v(out))=-0.0687661 FROM 0.16 TO 0.17
max16: MAX(v(out))=0.0672926 FROM 0.16 TO 0.17
min17: MIN(v(out))=-0.0731498 FROM 0.17 TO 0.18
max17: MAX(v(out))=0.0714847 FROM 0.17 TO 0.18
min18: MIN(v(out))=-0.0776247 FROM 0.18 TO 0.19
max18: MAX(v(out))=0.0756544 FROM 0.18 TO 0.19
min19: MIN(v(out))=-0.0820493 FROM 0.19 TO 0.2
max19: MAX(v(out))=0.0798335 FROM 0.19 TO 0.2
min20: MIN(v(out))=-0.0864734 FROM 0.2 TO 0.21
max20: MAX(v(out))=0.0840478 FROM 0.2 TO 0.21
min21: MIN(v(out))=-0.0909099 FROM 0.21 TO 0.22
max21: MAX(v(out))=0.0882464 FROM 0.21 TO 0.22
min22: MIN(v(out))=-0.095359 FROM 0.22 TO 0.23
max22: MAX(v(out))=0.0924244 FROM 0.22 TO 0.23
min23: MIN(v(out))=-0.0998212 FROM 0.23 TO 0.24
max23: MAX(v(out))=0.0966278 FROM 0.23 TO 0.24
min24: MIN(v(out))=-0.104297 FROM 0.24 TO 0.25
max24: MAX(v(out))=0.100835 FROM 0.24 TO 0.25
min25: MIN(v(out))=-0.108786 FROM 0.25 TO 0.26
max25: MAX(v(out))=0.105083 FROM 0.25 TO 0.26
min26: MIN(v(out))=-0.11329 FROM 0.26 TO 0.27
max26: MAX(v(out))=0.109263 FROM 0.26 TO 0.27
min27: MIN(v(out))=-0.117808 FROM 0.27 TO 0.28
max27: MAX(v(out))=0.113485 FROM 0.27 TO 0.28
min28: MIN(v(out))=-0.12234 FROM 0.28 TO 0.29
max28: MAX(v(out))=0.117712 FROM 0.28 TO 0.29
min29: MIN(v(out))=-0.126735 FROM 0.29 TO 0.3
max29: MAX(v(out))=0.122023 FROM 0.29 TO 0.3
min30: MIN(v(out))=-0.131452 FROM 0.3 TO 0.31
max30: MAX(v(out))=0.126184 FROM 0.3 TO 0.31
min31: MIN(v(out))=-0.136032 FROM 0.31 TO 0.32
max31: MAX(v(out))=0.13043 FROM 0.31 TO 0.32
min32: MIN(v(out))=-0.140627 FROM 0.32 TO 0.33
max32: MAX(v(out))=0.134682 FROM 0.32 TO 0.33
min33: MIN(v(out))=-0.14524 FROM 0.33 TO 0.34
max33: MAX(v(out))=0.139017 FROM 0.33 TO 0.34
min34: MIN(v(out))=-0.14987 FROM 0.34 TO 0.35
max34: MAX(v(out))=0.14314 FROM 0.34 TO 0.35
min35: MIN(v(out))=-0.154517 FROM 0.35 TO 0.36
max35: MAX(v(out))=0.147415 FROM 0.35 TO 0.36
min36: MIN(v(out))=-0.159182 FROM 0.36 TO 0.37
max36: MAX(v(out))=0.151698 FROM 0.36 TO 0.37
min37: MIN(v(out))=-0.163865 FROM 0.37 TO 0.38
max37: MAX(v(out))=0.156161 FROM 0.37 TO 0.38
min38: MIN(v(out))=-0.168566 FROM 0.38 TO 0.39
max38: MAX(v(out))=0.16029 FROM 0.38 TO 0.39
min39: MIN(v(out))=-0.173287 FROM 0.39 TO 0.4
max39: MAX(v(out))=0.1646 FROM 0.39 TO 0.4
min40: MIN(v(out))=-0.178027 FROM 0.4 TO 0.41
max40: MAX(v(out))=0.16892 FROM 0.4 TO 0.41
min41: MIN(v(out))=-0.182786 FROM 0.41 TO 0.42
max41: MAX(v(out))=0.173454 FROM 0.41 TO 0.42
min42: MIN(v(out))=-0.187566 FROM 0.42 TO 0.43
max42: MAX(v(out))=0.1778 FROM 0.42 TO 0.43
min43: MIN(v(out))=-0.192382 FROM 0.43 TO 0.44
max43: MAX(v(out))=0.182156 FROM 0.43 TO 0.44
min44: MIN(v(out))=-0.197186 FROM 0.44 TO 0.45
max44: MAX(v(out))=0.186524 FROM 0.44 TO 0.45
min45: MIN(v(out))=-0.202045 FROM 0.45 TO 0.46
max45: MAX(v(out))=0.190903 FROM 0.45 TO 0.46
min46: MIN(v(out))=-0.206909 FROM 0.46 TO 0.47
max46: MAX(v(out))=0.195294 FROM 0.46 TO 0.47
min47: MIN(v(out))=-0.211795 FROM 0.47 TO 0.48
max47: MAX(v(out))=0.199698 FROM 0.47 TO 0.48
min48: MIN(v(out))=-0.216703 FROM 0.48 TO 0.49
max48: MAX(v(out))=0.204114 FROM 0.48 TO 0.49
min49: MIN(v(out))=-0.221634 FROM 0.49 TO 0.5
max49: MAX(v(out))=0.208542 FROM 0.49 TO 0.5
min50: MIN(v(out))=-0.226587 FROM 0.5 TO 0.51
max50: MAX(v(out))=0.212984 FROM 0.5 TO 0.51
min51: MIN(v(out))=-0.231564 FROM 0.51 TO 0.52
max51: MAX(v(out))=0.21744 FROM 0.51 TO 0.52
min52: MIN(v(out))=-0.236565 FROM 0.52 TO 0.53
max52: MAX(v(out))=0.221647 FROM 0.52 TO 0.53
min53: MIN(v(out))=-0.24159 FROM 0.53 TO 0.54
max53: MAX(v(out))=0.226124 FROM 0.53 TO 0.54
min54: MIN(v(out))=-0.246639 FROM 0.54 TO 0.55
max54: MAX(v(out))=0.230617 FROM 0.54 TO 0.55
min55: MIN(v(out))=-0.251713 FROM 0.55 TO 0.56
max55: MAX(v(out))=0.235263 FROM 0.55 TO 0.56
min56: MIN(v(out))=-0.256813 FROM 0.56 TO 0.57
max56: MAX(v(out))=0.239647 FROM 0.56 TO 0.57
min57: MIN(v(out))=-0.261937 FROM 0.57 TO 0.58
max57: MAX(v(out))=0.244184 FROM 0.57 TO 0.58
min58: MIN(v(out))=-0.267088 FROM 0.58 TO 0.59
max58: MAX(v(out))=0.248738 FROM 0.58 TO 0.59
min59: MIN(v(out))=-0.272265 FROM 0.59 TO 0.6
max59: MAX(v(out))=0.25348 FROM 0.59 TO 0.6
min60: MIN(v(out))=-0.277468 FROM 0.6 TO 0.61
max60: MAX(v(out))=0.257894 FROM 0.6 TO 0.61
min61: MIN(v(out))=-0.282699 FROM 0.61 TO 0.62
max61: MAX(v(out))=0.262497 FROM 0.61 TO 0.62
min62: MIN(v(out))=-0.287956 FROM 0.62 TO 0.63
max62: MAX(v(out))=0.267346 FROM 0.62 TO 0.63
min63: MIN(v(out))=-0.293242 FROM 0.63 TO 0.64
max63: MAX(v(out))=0.272081 FROM 0.63 TO 0.64
min64: MIN(v(out))=-0.298555 FROM 0.64 TO 0.65
max64: MAX(v(out))=0.276742 FROM 0.64 TO 0.65
min65: MIN(v(out))=-0.303896 FROM 0.65 TO 0.66
max65: MAX(v(out))=0.281422 FROM 0.65 TO 0.66
min66: MIN(v(out))=-0.309265 FROM 0.66 TO 0.67
max66: MAX(v(out))=0.286119 FROM 0.66 TO 0.67
min67: MIN(v(out))=-0.314483 FROM 0.67 TO 0.68
max67: MAX(v(out))=0.290836 FROM 0.67 TO 0.68
min68: MIN(v(out))=-0.319624 FROM 0.68 TO 0.69
max68: MAX(v(out))=0.295571 FROM 0.68 TO 0.69
min69: MIN(v(out))=-0.325072 FROM 0.69 TO 0.7
max69: MAX(v(out))=0.300326 FROM 0.69 TO 0.7
min70: MIN(v(out))=-0.331038 FROM 0.7 TO 0.71
max70: MAX(v(out))=0.305101 FROM 0.7 TO 0.71
min71: MIN(v(out))=-0.336555 FROM 0.71 TO 0.72
max71: MAX(v(out))=0.309896 FROM 0.71 TO 0.72
min72: MIN(v(out))=-0.342103 FROM 0.72 TO 0.73
max72: MAX(v(out))=0.314712 FROM 0.72 TO 0.73
min73: MIN(v(out))=-0.347163 FROM 0.73 TO 0.74
max73: MAX(v(out))=0.319548 FROM 0.73 TO 0.74
min74: MIN(v(out))=-0.353086 FROM 0.74 TO 0.75
max74: MAX(v(out))=0.324405 FROM 0.74 TO 0.75
min75: MIN(v(out))=-0.358394 FROM 0.75 TO 0.76
max75: MAX(v(out))=0.329283 FROM 0.75 TO 0.76
min76: MIN(v(out))=-0.364606 FROM 0.76 TO 0.77
max76: MAX(v(out))=0.334182 FROM 0.76 TO 0.77
min77: MIN(v(out))=-0.370312 FROM 0.77 TO 0.78
max77: MAX(v(out))=0.339103 FROM 0.77 TO 0.78
min78: MIN(v(out))=-0.375954 FROM 0.78 TO 0.79
max78: MAX(v(out))=0.344046 FROM 0.78 TO 0.79
min79: MIN(v(out))=-0.381821 FROM 0.79 TO 0.8
max79: MAX(v(out))=0.34901 FROM 0.79 TO 0.8
min80: MIN(v(out))=-0.387626 FROM 0.8 TO 0.81
max80: MAX(v(out))=0.353998 FROM 0.8 TO 0.81
min81: MIN(v(out))=-0.393464 FROM 0.81 TO 0.82
max81: MAX(v(out))=0.359008 FROM 0.81 TO 0.82
min82: MIN(v(out))=-0.399336 FROM 0.82 TO 0.83
max82: MAX(v(out))=0.364041 FROM 0.82 TO 0.83
min83: MIN(v(out))=-0.405243 FROM 0.83 TO 0.84
max83: MAX(v(out))=0.369097 FROM 0.83 TO 0.84
min84: MIN(v(out))=-0.411183 FROM 0.84 TO 0.85
max84: MAX(v(out))=0.374177 FROM 0.84 TO 0.85
min85: MIN(v(out))=-0.417159 FROM 0.85 TO 0.86
max85: MAX(v(out))=0.379281 FROM 0.85 TO 0.86
min86: MIN(v(out))=-0.42317 FROM 0.86 TO 0.87
max86: MAX(v(out))=0.384408 FROM 0.86 TO 0.87
min87: MIN(v(out))=-0.429216 FROM 0.87 TO 0.88
max87: MAX(v(out))=0.389561 FROM 0.87 TO 0.88
min88: MIN(v(out))=-0.435298 FROM 0.88 TO 0.89
max88: MAX(v(out))=0.394738 FROM 0.88 TO 0.89
min89: MIN(v(out))=-0.441415 FROM 0.89 TO 0.9
max89: MAX(v(out))=0.39994 FROM 0.89 TO 0.9
min90: MIN(v(out))=-0.44757 FROM 0.9 TO 0.91
max90: MAX(v(out))=0.405166 FROM 0.9 TO 0.91
min91: MIN(v(out))=-0.453761 FROM 0.91 TO 0.92
max91: MAX(v(out))=0.410418 FROM 0.91 TO 0.92
min92: MIN(v(out))=-0.459988 FROM 0.92 TO 0.93
max92: MAX(v(out))=0.415697 FROM 0.92 TO 0.93
min93: MIN(v(out))=-0.466253 FROM 0.93 TO 0.94
max93: MAX(v(out))=0.421001 FROM 0.93 TO 0.94
min94: MIN(v(out))=-0.472555 FROM 0.94 TO 0.95
max94: MAX(v(out))=0.426331 FROM 0.94 TO 0.95
min95: MIN(v(out))=-0.478895 FROM 0.95 TO 0.96
max95: MAX(v(out))=0.431688 FROM 0.95 TO 0.96
min96: MIN(v(out))=-0.485273 FROM 0.96 TO 0.97
max96: MAX(v(out))=0.437071 FROM 0.96 TO 0.97
min97: MIN(v(out))=-0.491689 FROM 0.97 TO 0.98
max97: MAX(v(out))=0.442481 FROM 0.97 TO 0.98
min98: MIN(v(out))=-0.498144 FROM 0.98 TO 0.99
max98: MAX(v(out))=0.447919 FROM 0.98 TO 0.99
min99: MIN(v(out))=-0.504637 FROM 0.99 TO 1
max99: MAX(v(out))=0.453385 FROM 0.99 TO 1
min100: MIN(v(out))=-0.511169 FROM 1 TO 1.01
max100: MAX(v(out))=0.458878 FROM 1 TO 1.01


Date: Tue Apr 29 19:16:03 2025
Total elapsed time: 4.559 seconds.

tnom = 27
temp = 27
method = modified trap
totiter = 223489
traniter = 223451
tranpoints = 101048
accept = 101030
rejected = 19
matrix size = 71
fillins = 90
solver = Normal
Thread vector: 21.9/12.7[2] 2.9/2.0[2] 3.0/1.9[2] 0.6/1.1[1]  2592/500
Matrix Compiler1: 12.93 KB object code size  2.7/1.4/[0.9]
Matrix Compiler2: 7.87 KB object code size  0.8/1.1/[0.7]

