Questionable use of curly braces in "b2 amp 0 v={10m*ceil(time*500)-10m}"
    Error: undefined symbol in: "10m*ceil([time]*500)-10m"
Questionable use of curly braces in "b3 tref 0 v={1*time}"
    Error: undefined symbol in: "1*[time]"
Circuit: ***************************************

Warning: Multiple definitions of model "2scr375p" Type: BJT
Warning: Multiple definitions of model "bc857b" Type: BJT
Warning: Multiple definitions of model "bc847c" Type: BJT
Warning: Multiple definitions of model "bc847b" Type: BJT
WARNING: Less than two connections to node TREF.  This node is used by B3.
Direct Newton iteration failed to find .op point.  (Use ".option noopiter" to skip.)
Starting Gmin stepping
Gmin = 10
Gmin = 1.07374
Gmin = 0.115292
Gmin = 0.0123794
Gmin = 0.00132923
Gmin = 0.000142725
Gmin = 1.5325e-005
Gmin = 1.6455e-006
Gmin = 1.76685e-007
Gmin = 1.89714e-008
Gmin = 2.03704e-009
Gmin = 2.18725e-010
Gmin = 2.34854e-011
Gmin = 2.52173e-012
Gmin = 2.70769e-013
Gmin = 0
Gmin stepping succeeded in finding the operating point.

Changing Tseed to 1e-009
Heightened Def Con from 1e-009 +to 6e-009
Heightened Def Con from 6e-009 +to 1e-008
Heightened Def Con from 1.10676e-008 to 1.11929e-008
Heightened Def Con from 1.11929e-008 to 1.14429e-008

min0: MIN(v(out))=-5.68802e-006 FROM 0 TO 0.002
max0: MAX(v(out))=7.2083e-005 FROM 0 TO 0.002
min1: MIN(v(out))=2.55581e-007 FROM 0.002 TO 0.004
max1: MAX(v(out))=3.45893e-007 FROM 0.002 TO 0.004
min2: MIN(v(out))=1.65268e-007 FROM 0.004 TO 0.006
max2: MAX(v(out))=2.55581e-007 FROM 0.004 TO 0.006
min3: MIN(v(out))=7.49556e-008 FROM 0.006 TO 0.008
max3: MAX(v(out))=1.65268e-007 FROM 0.006 TO 0.008
min4: MIN(v(out))=-1.18477e-009 FROM 0.008 TO 0.01
max4: MAX(v(out))=7.49556e-008 FROM 0.008 TO 0.01
min5: MIN(v(out))=-1.17883e-009 FROM 0.01 TO 0.012
max5: MAX(v(out))=-1.14096e-009 FROM 0.01 TO 0.012
min6: MIN(v(out))=-1.14096e-009 FROM 0.012 TO 0.014
max6: MAX(v(out))=-1.10309e-009 FROM 0.012 TO 0.014
min7: MIN(v(out))=-1.10309e-009 FROM 0.014 TO 0.016
max7: MAX(v(out))=-1.06522e-009 FROM 0.014 TO 0.016
min8: MIN(v(out))=-1.06522e-009 FROM 0.016 TO 0.018
max8: MAX(v(out))=-1.02735e-009 FROM 0.016 TO 0.018
min9: MIN(v(out))=-1.02735e-009 FROM 0.018 TO 0.02
max9: MAX(v(out))=-9.9028e-010 FROM 0.018 TO 0.02
min10: MIN(v(out))=-9.9028e-010 FROM 0.02 TO 0.022
max10: MAX(v(out))=-9.74142e-010 FROM 0.02 TO 0.022
min11: MIN(v(out))=-9.74142e-010 FROM 0.022 TO 0.024
max11: MAX(v(out))=-9.58004e-010 FROM 0.022 TO 0.024
min12: MIN(v(out))=-9.58004e-010 FROM 0.024 TO 0.026
max12: MAX(v(out))=-9.41865e-010 FROM 0.024 TO 0.026
min13: MIN(v(out))=-9.41865e-010 FROM 0.026 TO 0.028
max13: MAX(v(out))=-9.25727e-010 FROM 0.026 TO 0.028
min14: MIN(v(out))=-9.25727e-010 FROM 0.028 TO 0.03
max14: MAX(v(out))=-9.09589e-010 FROM 0.028 TO 0.03
min15: MIN(v(out))=-9.09589e-010 FROM 0.03 TO 0.032
max15: MAX(v(out))=-8.92403e-010 FROM 0.03 TO 0.032
min16: MIN(v(out))=-8.92403e-010 FROM 0.032 TO 0.034
max16: MAX(v(out))=-8.75123e-010 FROM 0.032 TO 0.034
min17: MIN(v(out))=-8.75123e-010 FROM 0.034 TO 0.036
max17: MAX(v(out))=-8.57842e-010 FROM 0.034 TO 0.036
min18: MIN(v(out))=-8.57842e-010 FROM 0.036 TO 0.038
max18: MAX(v(out))=-8.40561e-010 FROM 0.036 TO 0.038
min19: MIN(v(out))=-8.40561e-010 FROM 0.038 TO 0.04
max19: MAX(v(out))=-8.23281e-010 FROM 0.038 TO 0.04
min20: MIN(v(out))=-8.23281e-010 FROM 0.04 TO 0.042
max20: MAX(v(out))=-8.16304e-010 FROM 0.04 TO 0.042
min21: MIN(v(out))=-8.16304e-010 FROM 0.042 TO 0.044
max21: MAX(v(out))=-8.11954e-010 FROM 0.042 TO 0.044
min22: MIN(v(out))=-8.11954e-010 FROM 0.044 TO 0.046
max22: MAX(v(out))=-8.07604e-010 FROM 0.044 TO 0.046
min23: MIN(v(out))=-8.07604e-010 FROM 0.046 TO 0.048
max23: MAX(v(out))=-8.03254e-010 FROM 0.046 TO 0.048
min24: MIN(v(out))=-8.03254e-010 FROM 0.048 TO 0.05
max24: MAX(v(out))=-7.98904e-010 FROM 0.048 TO 0.05
min25: MIN(v(out))=-7.98904e-010 FROM 0.05 TO 0.052
max25: MAX(v(out))=-7.46874e-010 FROM 0.05 TO 0.052
min26: MIN(v(out))=-7.46874e-010 FROM 0.052 TO 0.054
max26: MAX(v(out))=-6.72088e-010 FROM 0.052 TO 0.054
min27: MIN(v(out))=-6.72088e-010 FROM 0.054 TO 0.056
max27: MAX(v(out))=-5.97302e-010 FROM 0.054 TO 0.056
min28: MIN(v(out))=-5.97302e-010 FROM 0.056 TO 0.058
max28: MAX(v(out))=-5.22517e-010 FROM 0.056 TO 0.058
min29: MIN(v(out))=-5.22517e-010 FROM 0.058 TO 0.06
max29: MAX(v(out))=-4.47731e-010 FROM 0.058 TO 0.06
min30: MIN(v(out))=-4.47731e-010 FROM 0.06 TO 0.062
max30: MAX(v(out))=-4.14595e-010 FROM 0.06 TO 0.062
min31: MIN(v(out))=-4.37233e-010 FROM 0.062 TO 0.064
max31: MAX(v(out))=-4.22693e-010 FROM 0.062 TO 0.064
min32: MIN(v(out))=-4.51774e-010 FROM 0.064 TO 0.066
max32: MAX(v(out))=-4.37233e-010 FROM 0.064 TO 0.066
min33: MIN(v(out))=-4.66314e-010 FROM 0.066 TO 0.068
max33: MAX(v(out))=-4.51774e-010 FROM 0.066 TO 0.068
min34: MIN(v(out))=-4.80854e-010 FROM 0.068 TO 0.07
max34: MAX(v(out))=-4.66314e-010 FROM 0.068 TO 0.07
min35: MIN(v(out))=-4.89042e-010 FROM 0.07 TO 0.072
max35: MAX(v(out))=-4.79174e-010 FROM 0.07 TO 0.072
min36: MIN(v(out))=-4.79174e-010 FROM 0.072 TO 0.074
max36: MAX(v(out))=-4.5659e-010 FROM 0.072 TO 0.074
min37: MIN(v(out))=-4.5659e-010 FROM 0.074 TO 0.076
max37: MAX(v(out))=-4.34005e-010 FROM 0.074 TO 0.076
min38: MIN(v(out))=-4.34005e-010 FROM 0.076 TO 0.078
max38: MAX(v(out))=-4.11421e-010 FROM 0.076 TO 0.078
min39: MIN(v(out))=-4.11421e-010 FROM 0.078 TO 0.08
max39: MAX(v(out))=-3.88837e-010 FROM 0.078 TO 0.08
min40: MIN(v(out))=-3.88837e-010 FROM 0.08 TO 0.082
max40: MAX(v(out))=-3.7341e-010 FROM 0.08 TO 0.082
min41: MIN(v(out))=-4.35862e-010 FROM 0.082 TO 0.084
max41: MAX(v(out))=-3.88439e-010 FROM 0.082 TO 0.084
min42: MIN(v(out))=-4.83284e-010 FROM 0.084 TO 0.086
max42: MAX(v(out))=-4.35862e-010 FROM 0.084 TO 0.086
min43: MIN(v(out))=-5.30707e-010 FROM 0.086 TO 0.088
max43: MAX(v(out))=-4.83284e-010 FROM 0.086 TO 0.088
min44: MIN(v(out))=-5.78129e-010 FROM 0.088 TO 0.09
max44: MAX(v(out))=-5.30707e-010 FROM 0.088 TO 0.09
min45: MIN(v(out))=-6.16214e-010 FROM 0.09 TO 0.092
max45: MAX(v(out))=-5.78129e-010 FROM 0.09 TO 0.092
min46: MIN(v(out))=-6.13e-010 FROM 0.092 TO 0.094
max46: MAX(v(out))=-5.96681e-010 FROM 0.092 TO 0.094
min47: MIN(v(out))=-5.96681e-010 FROM 0.094 TO 0.096
max47: MAX(v(out))=-5.80361e-010 FROM 0.094 TO 0.096
min48: MIN(v(out))=-5.80361e-010 FROM 0.096 TO 0.098
max48: MAX(v(out))=-5.64042e-010 FROM 0.096 TO 0.098
min49: MIN(v(out))=-5.64042e-010 FROM 0.098 TO 0.1
max49: MAX(v(out))=-5.47723e-010 FROM 0.098 TO 0.1
min50: MIN(v(out))=-5.47723e-010 FROM 0.1 TO 0.102
max50: MAX(v(out))=-5.25438e-010 FROM 0.1 TO 0.102
min51: MIN(v(out))=-5.25438e-010 FROM 0.102 TO 0.104
max51: MAX(v(out))=-4.31569e-010 FROM 0.102 TO 0.104
min52: MIN(v(out))=-4.31569e-010 FROM 0.104 TO 0.106
max52: MAX(v(out))=-3.37699e-010 FROM 0.104 TO 0.106
min53: MIN(v(out))=-3.37699e-010 FROM 0.106 TO 0.108
max53: MAX(v(out))=-2.43829e-010 FROM 0.106 TO 0.108
min54: MIN(v(out))=-2.43829e-010 FROM 0.108 TO 0.11
max54: MAX(v(out))=-1.4996e-010 FROM 0.108 TO 0.11
min55: MIN(v(out))=-1.4996e-010 FROM 0.11 TO 0.112
max55: MAX(v(out))=-5.60902e-011 FROM 0.11 TO 0.112
min56: MIN(v(out))=-9.6915e-011 FROM 0.112 TO 0.114
max56: MAX(v(out))=-5.20465e-011 FROM 0.112 TO 0.114
min57: MIN(v(out))=-1.43803e-010 FROM 0.114 TO 0.116
max57: MAX(v(out))=-9.6915e-011 FROM 0.114 TO 0.116
min58: MIN(v(out))=-1.90692e-010 FROM 0.116 TO 0.118
max58: MAX(v(out))=-1.43803e-010 FROM 0.116 TO 0.118
min59: MIN(v(out))=-2.3758e-010 FROM 0.118 TO 0.12
max59: MAX(v(out))=-1.90692e-010 FROM 0.118 TO 0.12
min60: MIN(v(out))=-2.84469e-010 FROM 0.12 TO 0.122
max60: MAX(v(out))=-2.3758e-010 FROM 0.12 TO 0.122
min61: MIN(v(out))=-2.92115e-010 FROM 0.122 TO 0.124
max61: MAX(v(out))=-2.75265e-010 FROM 0.122 TO 0.124
min62: MIN(v(out))=-2.75265e-010 FROM 0.124 TO 0.126
max62: MAX(v(out))=-2.55132e-010 FROM 0.124 TO 0.126
min63: MIN(v(out))=-2.55132e-010 FROM 0.126 TO 0.128
max63: MAX(v(out))=-2.34999e-010 FROM 0.126 TO 0.128
min64: MIN(v(out))=-2.34999e-010 FROM 0.128 TO 0.13
max64: MAX(v(out))=-2.14865e-010 FROM 0.128 TO 0.13
min65: MIN(v(out))=-2.14865e-010 FROM 0.13 TO 0.132
max65: MAX(v(out))=-1.94732e-010 FROM 0.13 TO 0.132
min66: MIN(v(out))=-1.94732e-010 FROM 0.132 TO 0.134
max66: MAX(v(out))=-1.58661e-010 FROM 0.132 TO 0.134
min67: MIN(v(out))=-1.58661e-010 FROM 0.134 TO 0.136
max67: MAX(v(out))=-1.16296e-010 FROM 0.134 TO 0.136
min68: MIN(v(out))=-1.16296e-010 FROM 0.136 TO 0.138
max68: MAX(v(out))=-7.39315e-011 FROM 0.136 TO 0.138
min69: MIN(v(out))=-7.39315e-011 FROM 0.138 TO 0.14
max69: MAX(v(out))=-3.1567e-011 FROM 0.138 TO 0.14
min70: MIN(v(out))=-3.1567e-011 FROM 0.14 TO 0.142
max70: MAX(v(out))=1.07976e-011 FROM 0.14 TO 0.142
min71: MIN(v(out))=1.07976e-011 FROM 0.142 TO 0.144
max71: MAX(v(out))=2.78738e-011 FROM 0.142 TO 0.144
min72: MIN(v(out))=-7.26629e-012 FROM 0.144 TO 0.146
max72: MAX(v(out))=1.47386e-011 FROM 0.144 TO 0.146
min73: MIN(v(out))=-2.92712e-011 FROM 0.146 TO 0.148
max73: MAX(v(out))=-7.26629e-012 FROM 0.146 TO 0.148
min74: MIN(v(out))=-5.1276e-011 FROM 0.148 TO 0.15
max74: MAX(v(out))=-2.92712e-011 FROM 0.148 TO 0.15
min75: MIN(v(out))=-7.32809e-011 FROM 0.15 TO 0.152
max75: MAX(v(out))=-5.1276e-011 FROM 0.15 TO 0.152
min76: MIN(v(out))=-8.47912e-011 FROM 0.152 TO 0.154
max76: MAX(v(out))=-6.85245e-011 FROM 0.152 TO 0.154
min77: MIN(v(out))=-6.85245e-011 FROM 0.154 TO 0.156
max77: MAX(v(out))=-3.44169e-011 FROM 0.154 TO 0.156
min78: MIN(v(out))=-3.44169e-011 FROM 0.156 TO 0.158
max78: MAX(v(out))=-3.0922e-013 FROM 0.156 TO 0.158
min79: MIN(v(out))=-3.0922e-013 FROM 0.158 TO 0.16
max79: MAX(v(out))=3.37984e-011 FROM 0.158 TO 0.16
min80: MIN(v(out))=3.37984e-011 FROM 0.16 TO 0.162
max80: MAX(v(out))=6.79061e-011 FROM 0.16 TO 0.162
min81: MIN(v(out))=6.79061e-011 FROM 0.162 TO 0.164
max81: MAX(v(out))=9.59176e-011 FROM 0.162 TO 0.164
min82: MIN(v(out))=9.59176e-011 FROM 0.164 TO 0.166
max82: MAX(v(out))=1.12946e-010 FROM 0.164 TO 0.166
min83: MIN(v(out))=1.12946e-010 FROM 0.166 TO 0.168
max83: MAX(v(out))=1.29974e-010 FROM 0.166 TO 0.168
min84: MIN(v(out))=1.29974e-010 FROM 0.168 TO 0.17
max84: MAX(v(out))=1.47002e-010 FROM 0.168 TO 0.17
min85: MIN(v(out))=1.47002e-010 FROM 0.17 TO 0.172
max85: MAX(v(out))=1.6403e-010 FROM 0.17 TO 0.172
min86: MIN(v(out))=1.6403e-010 FROM 0.172 TO 0.174
max86: MAX(v(out))=1.77023e-010 FROM 0.172 TO 0.174
min87: MIN(v(out))=1.63228e-010 FROM 0.174 TO 0.176
max87: MAX(v(out))=1.74381e-010 FROM 0.174 TO 0.176
min88: MIN(v(out))=1.52076e-010 FROM 0.176 TO 0.178
max88: MAX(v(out))=1.63228e-010 FROM 0.176 TO 0.178
min89: MIN(v(out))=1.40923e-010 FROM 0.178 TO 0.18
max89: MAX(v(out))=1.52076e-010 FROM 0.178 TO 0.18
min90: MIN(v(out))=1.2977e-010 FROM 0.18 TO 0.182
max90: MAX(v(out))=1.40923e-010 FROM 0.18 TO 0.182
min91: MIN(v(out))=1.19922e-010 FROM 0.182 TO 0.184
max91: MAX(v(out))=1.2977e-010 FROM 0.182 TO 0.184
min92: MIN(v(out))=1.22061e-010 FROM 0.184 TO 0.186
max92: MAX(v(out))=1.40359e-010 FROM 0.184 TO 0.186
min93: MIN(v(out))=1.40359e-010 FROM 0.186 TO 0.188
max93: MAX(v(out))=1.58656e-010 FROM 0.186 TO 0.188
min94: MIN(v(out))=1.58656e-010 FROM 0.188 TO 0.19
max94: MAX(v(out))=1.76954e-010 FROM 0.188 TO 0.19
min95: MIN(v(out))=1.76954e-010 FROM 0.19 TO 0.192
max95: MAX(v(out))=1.95251e-010 FROM 0.19 TO 0.192
min96: MIN(v(out))=1.95251e-010 FROM 0.192 TO 0.194
max96: MAX(v(out))=2.13549e-010 FROM 0.192 TO 0.194
min97: MIN(v(out))=1.23992e-010 FROM 0.194 TO 0.196
max97: MAX(v(out))=2.13605e-010 FROM 0.194 TO 0.196
min98: MIN(v(out))=3.4102e-011 FROM 0.196 TO 0.198
max98: MAX(v(out))=1.23992e-010 FROM 0.196 TO 0.198
min99: MIN(v(out))=-5.57879e-011 FROM 0.198 TO 0.2
max99: MAX(v(out))=3.4102e-011 FROM 0.198 TO 0.2
min100: MIN(v(out))=-2.00827e-010 FROM 0.2 TO 0.202
max100: MAX(v(out))=-5.57879e-011 FROM 0.2 TO 0.202


Date: Tue May 13 14:55:36 2025
Total elapsed time: 1.141 seconds.

tnom = 27
temp = 27
method = modified trap
totiter = 41755
traniter = 41328
tranpoints = 20330
accept = 20262
rejected = 73
matrix size = 71
fillins = 82
solver = Normal
Thread vector: 22.2/16.4[2] 4.0/3.3[2] 4.3/4.1[1] 0.5/1.0[1]  2592/500
Matrix Compiler1: 12.34 KB object code size  4.1/2.9/[1.5]
Matrix Compiler2: 7.76 KB object code size  1.3/1.6/[0.7]

